
Note: No compatibility mode selected!


Circuit: divisor de voltaje

Doing analysis at TEMP = 27.000000 and TNOM = 27.000000

Using SPARSE 1.3 as Direct Linear Solver

No. of Data Rows : 6
                               divisor de voltaje
                               DC transfer characteristic  Wed Jun 10 23:13:07  2026
--------------------------------------------------------------------------------
Index   v-sweep         v(div)          
--------------------------------------------------------------------------------
0	0.000000e+00	0.000000e+00	
1	1.000000e+00	6.666667e-01	
2	2.000000e+00	1.333333e+00	
3	3.000000e+00	2.000000e+00	
4	4.000000e+00	2.666667e+00	
5	5.000000e+00	3.333333e+00	
Note: Simulation executed from .control section 
