
Note: No compatibility mode selected!


Circuit: rc circuit

Doing analysis at TEMP = 27.000000 and TNOM = 27.000000

Using SPARSE 1.3 as Direct Linear Solver

Initial Transient Solution
--------------------------

Node                                   Voltage
----                                   -------
2                                            0
div                                          0
vin#branch                                   0


No. of Data Rows : 1026
                                   rc circuit
                                   Transient Analysis  Mon Jun 15 23:15:27  2026
--------------------------------------------------------------------------------
Index   time            v(2)            div             
--------------------------------------------------------------------------------
0	0.000000e+00	0.000000e+00	0.000000e+00	
1	1.000000e-08	0.000000e+00	0.000000e+00	
2	2.000000e-08	0.000000e+00	0.000000e+00	
3	4.000000e-08	0.000000e+00	0.000000e+00	
4	8.000000e-08	0.000000e+00	0.000000e+00	
5	1.600000e-07	0.000000e+00	0.000000e+00	
6	3.200000e-07	0.000000e+00	0.000000e+00	
7	6.400000e-07	0.000000e+00	0.000000e+00	
8	1.000000e-06	0.000000e+00	0.000000e+00	
9	1.005955e-06	2.977276e-02	2.977258e-02	
10	1.017864e-06	8.931827e-02	8.931738e-02	
11	1.041682e-06	2.084093e-01	2.084049e-01	
12	1.083683e-06	4.184143e-01	4.183967e-01	
13	1.167685e-06	8.384243e-01	8.383539e-01	
14	1.335689e-06	1.678444e+00	1.678163e+00	
15	1.671697e-06	3.358484e+00	3.357357e+00	
16	2.000000e-06	5.000000e+00	4.997501e+00	
17	2.067202e-06	5.000000e+00	4.997165e+00	
18	2.201605e-06	5.000000e+00	4.996493e+00	
19	2.470411e-06	5.000000e+00	4.995150e+00	
20	3.008024e-06	5.000000e+00	4.992466e+00	
21	4.083250e-06	5.000000e+00	4.987101e+00	
22	6.233701e-06	5.000000e+00	4.976388e+00	
23	1.053460e-05	5.000000e+00	4.955031e+00	
24	1.913641e-05	5.000000e+00	4.912591e+00	
25	3.634002e-05	5.000000e+00	4.828797e+00	
26	7.074724e-05	5.000000e+00	4.665462e+00	
27	1.207472e-04	5.000000e+00	4.437878e+00	
28	1.707472e-04	5.000000e+00	4.221396e+00	
29	2.207472e-04	5.000000e+00	4.015475e+00	
30	2.707472e-04	5.000000e+00	3.819598e+00	
31	3.207472e-04	5.000000e+00	3.633276e+00	
32	3.707472e-04	5.000000e+00	3.456043e+00	
33	4.207472e-04	5.000000e+00	3.287456e+00	
34	4.707472e-04	5.000000e+00	3.127092e+00	
35	5.207472e-04	5.000000e+00	2.974551e+00	
36	5.707472e-04	5.000000e+00	2.829451e+00	
37	6.207472e-04	5.000000e+00	2.691429e+00	
38	6.707472e-04	5.000000e+00	2.560140e+00	
39	7.207472e-04	5.000000e+00	2.435255e+00	
40	7.707472e-04	5.000000e+00	2.316462e+00	
41	8.207472e-04	5.000000e+00	2.203464e+00	
42	8.707472e-04	5.000000e+00	2.095978e+00	
43	9.207472e-04	5.000000e+00	1.993735e+00	
44	9.707472e-04	5.000000e+00	1.896479e+00	
45	1.020747e-03	5.000000e+00	1.803968e+00	
46	1.070747e-03	5.000000e+00	1.715970e+00	
47	1.120747e-03	5.000000e+00	1.632264e+00	
48	1.170747e-03	5.000000e+00	1.552641e+00	
49	1.220747e-03	5.000000e+00	1.476903e+00	
50	1.270747e-03	5.000000e+00	1.404859e+00	
51	1.320747e-03	5.000000e+00	1.336329e+00	
52	1.370747e-03	5.000000e+00	1.271142e+00	
53	1.420747e-03	5.000000e+00	1.209135e+00	
54	1.470747e-03	5.000000e+00	1.150153e+00	

Index   time            v(2)            div             
--------------------------------------------------------------------------------
55	1.520747e-03	5.000000e+00	1.094048e+00	
56	1.570747e-03	5.000000e+00	1.040680e+00	
57	1.620747e-03	5.000000e+00	9.899150e-01	
58	1.670747e-03	5.000000e+00	9.416265e-01	
59	1.720747e-03	5.000000e+00	8.956935e-01	
60	1.770747e-03	5.000000e+00	8.520011e-01	
61	1.820747e-03	5.000000e+00	8.104401e-01	
62	1.870747e-03	5.000000e+00	7.709064e-01	
63	1.920747e-03	5.000000e+00	7.333012e-01	
64	1.970747e-03	5.000000e+00	6.975304e-01	
65	2.020747e-03	5.000000e+00	6.635045e-01	
66	2.070747e-03	5.000000e+00	6.311385e-01	
67	2.120747e-03	5.000000e+00	6.003512e-01	
68	2.170747e-03	5.000000e+00	5.710658e-01	
69	2.220747e-03	5.000000e+00	5.432089e-01	
70	2.270747e-03	5.000000e+00	5.167109e-01	
71	2.320747e-03	5.000000e+00	4.915055e-01	
72	2.370747e-03	5.000000e+00	4.675296e-01	
73	2.420747e-03	5.000000e+00	4.447233e-01	
74	2.470747e-03	5.000000e+00	4.230295e-01	
75	2.520747e-03	5.000000e+00	4.023939e-01	
76	2.570747e-03	5.000000e+00	3.827649e-01	
77	2.620747e-03	5.000000e+00	3.640935e-01	
78	2.670747e-03	5.000000e+00	3.463328e-01	
79	2.720747e-03	5.000000e+00	3.294385e-01	
80	2.770747e-03	5.000000e+00	3.133684e-01	
81	2.820747e-03	5.000000e+00	2.980821e-01	
82	2.870747e-03	5.000000e+00	2.835415e-01	
83	2.920747e-03	5.000000e+00	2.697102e-01	
84	2.970747e-03	5.000000e+00	2.565536e-01	
85	3.020747e-03	5.000000e+00	2.440388e-01	
86	3.070747e-03	5.000000e+00	2.321345e-01	
87	3.120747e-03	5.000000e+00	2.208108e-01	
88	3.170747e-03	5.000000e+00	2.100396e-01	
89	3.220747e-03	5.000000e+00	1.997938e-01	
90	3.270747e-03	5.000000e+00	1.900477e-01	
91	3.320747e-03	5.000000e+00	1.807771e-01	
92	3.370747e-03	5.000000e+00	1.719587e-01	
93	3.420747e-03	5.000000e+00	1.635705e-01	
94	3.470747e-03	5.000000e+00	1.555914e-01	
95	3.520747e-03	5.000000e+00	1.480016e-01	
96	3.570747e-03	5.000000e+00	1.407820e-01	
97	3.620747e-03	5.000000e+00	1.339146e-01	
98	3.670747e-03	5.000000e+00	1.273822e-01	
99	3.720747e-03	5.000000e+00	1.211684e-01	
100	3.770747e-03	5.000000e+00	1.152578e-01	
101	3.820747e-03	5.000000e+00	1.096354e-01	
102	3.870747e-03	5.000000e+00	1.042874e-01	
103	3.920747e-03	5.000000e+00	9.920017e-02	
104	3.970747e-03	5.000000e+00	9.436114e-02	
105	4.020747e-03	5.000000e+00	8.975815e-02	
106	4.070747e-03	5.000000e+00	8.537971e-02	
107	4.120747e-03	5.000000e+00	8.121484e-02	
108	4.170747e-03	5.000000e+00	7.725314e-02	
109	4.220747e-03	5.000000e+00	7.348470e-02	
110	4.270747e-03	5.000000e+00	6.990008e-02	
111	4.320747e-03	5.000000e+00	6.649032e-02	
112	4.370747e-03	5.000000e+00	6.324689e-02	

Index   time            v(2)            div             
--------------------------------------------------------------------------------
113	4.420747e-03	5.000000e+00	6.016167e-02	
114	4.470747e-03	5.000000e+00	5.722696e-02	
115	4.520747e-03	5.000000e+00	5.443540e-02	
116	4.570747e-03	5.000000e+00	5.178001e-02	
117	4.620747e-03	5.000000e+00	4.925416e-02	
118	4.670747e-03	5.000000e+00	4.685152e-02	
119	4.720747e-03	5.000000e+00	4.456608e-02	
120	4.770747e-03	5.000000e+00	4.239212e-02	
121	4.820747e-03	5.000000e+00	4.032421e-02	
122	4.870747e-03	5.000000e+00	3.835718e-02	
123	4.920747e-03	5.000000e+00	3.648610e-02	
124	4.970747e-03	5.000000e+00	3.470629e-02	
125	5.020747e-03	5.000000e+00	3.301330e-02	
126	5.070747e-03	5.000000e+00	3.140289e-02	
127	5.120747e-03	5.000000e+00	2.987105e-02	
128	5.170747e-03	5.000000e+00	2.841392e-02	
129	5.220747e-03	5.000000e+00	2.702788e-02	
130	5.270747e-03	5.000000e+00	2.570944e-02	
131	5.320747e-03	5.000000e+00	2.445532e-02	
132	5.370747e-03	5.000000e+00	2.326238e-02	
133	5.420747e-03	5.000000e+00	2.212763e-02	
134	5.470747e-03	5.000000e+00	2.104823e-02	
135	5.520747e-03	5.000000e+00	2.002149e-02	
136	5.570747e-03	5.000000e+00	1.904483e-02	
137	5.620747e-03	5.000000e+00	1.811582e-02	
138	5.670747e-03	5.000000e+00	1.723212e-02	
139	5.720747e-03	5.000000e+00	1.639153e-02	
140	5.770747e-03	5.000000e+00	1.559194e-02	
141	5.820747e-03	5.000000e+00	1.483136e-02	
142	5.870747e-03	5.000000e+00	1.410788e-02	
143	5.920747e-03	5.000000e+00	1.341969e-02	
144	5.970747e-03	5.000000e+00	1.276507e-02	
145	6.020747e-03	5.000000e+00	1.214238e-02	
146	6.070747e-03	5.000000e+00	1.155007e-02	
147	6.120747e-03	5.000000e+00	1.098665e-02	
148	6.170747e-03	5.000000e+00	1.045072e-02	
149	6.220747e-03	5.000000e+00	9.940928e-03	
150	6.270747e-03	5.000000e+00	9.456005e-03	
151	6.320747e-03	5.000000e+00	8.994736e-03	
152	6.370747e-03	5.000000e+00	8.555969e-03	
153	6.420747e-03	5.000000e+00	8.138604e-03	
154	6.470747e-03	5.000000e+00	7.741599e-03	
155	6.520747e-03	5.000000e+00	7.363960e-03	
156	6.570747e-03	5.000000e+00	7.004743e-03	
157	6.620747e-03	5.000000e+00	6.663048e-03	
158	6.670747e-03	5.000000e+00	6.338021e-03	
159	6.720747e-03	5.000000e+00	6.028849e-03	
160	6.770747e-03	5.000000e+00	5.734759e-03	
161	6.820747e-03	5.000000e+00	5.455015e-03	
162	6.870747e-03	5.000000e+00	5.188917e-03	
163	6.920747e-03	5.000000e+00	4.935799e-03	
164	6.970747e-03	5.000000e+00	4.695028e-03	
165	7.020747e-03	5.000000e+00	4.466002e-03	
166	7.070747e-03	5.000000e+00	4.248148e-03	
167	7.120747e-03	5.000000e+00	4.040922e-03	
168	7.170747e-03	5.000000e+00	3.843804e-03	
169	7.220747e-03	5.000000e+00	3.656301e-03	
170	7.270747e-03	5.000000e+00	3.477945e-03	

Index   time            v(2)            div             
--------------------------------------------------------------------------------
171	7.320747e-03	5.000000e+00	3.308289e-03	
172	7.370747e-03	5.000000e+00	3.146909e-03	
173	7.420747e-03	5.000000e+00	2.993401e-03	
174	7.470747e-03	5.000000e+00	2.847382e-03	
175	7.520747e-03	5.000000e+00	2.708485e-03	
176	7.570747e-03	5.000000e+00	2.576364e-03	
177	7.620747e-03	5.000000e+00	2.450688e-03	
178	7.670747e-03	5.000000e+00	2.331142e-03	
179	7.720747e-03	5.000000e+00	2.217428e-03	
180	7.770747e-03	5.000000e+00	2.109260e-03	
181	7.820747e-03	5.000000e+00	2.006370e-03	
182	7.870747e-03	5.000000e+00	1.908498e-03	
183	7.920747e-03	5.000000e+00	1.815400e-03	
184	7.970747e-03	5.000000e+00	1.726844e-03	
185	8.020747e-03	5.000000e+00	1.642608e-03	
186	8.070747e-03	5.000000e+00	1.562481e-03	
187	8.120747e-03	5.000000e+00	1.486262e-03	
188	8.170747e-03	5.000000e+00	1.413762e-03	
189	8.220747e-03	5.000000e+00	1.344798e-03	
190	8.270747e-03	5.000000e+00	1.279198e-03	
191	8.320747e-03	5.000000e+00	1.216798e-03	
192	8.370747e-03	5.000000e+00	1.157442e-03	
193	8.420747e-03	5.000000e+00	1.100981e-03	
194	8.470747e-03	5.000000e+00	1.047275e-03	
195	8.520747e-03	5.000000e+00	9.961883e-04	
196	8.570747e-03	5.000000e+00	9.475938e-04	
197	8.620747e-03	5.000000e+00	9.013697e-04	
198	8.670747e-03	5.000000e+00	8.574004e-04	
199	8.720747e-03	5.000000e+00	8.155760e-04	
200	8.770747e-03	5.000000e+00	7.757918e-04	
201	8.820747e-03	5.000000e+00	7.379483e-04	
202	8.870747e-03	5.000000e+00	7.019508e-04	
203	8.920747e-03	5.000000e+00	6.677093e-04	
204	8.970747e-03	5.000000e+00	6.351381e-04	
205	9.020747e-03	5.000000e+00	6.041558e-04	
206	9.070747e-03	5.000000e+00	5.746848e-04	
207	9.120747e-03	5.000000e+00	5.466514e-04	
208	9.170747e-03	5.000000e+00	5.199855e-04	
209	9.220747e-03	5.000000e+00	4.946203e-04	
210	9.270747e-03	5.000000e+00	4.704925e-04	
211	9.320747e-03	5.000000e+00	4.475416e-04	
212	9.370747e-03	5.000000e+00	4.257103e-04	
213	9.420747e-03	5.000000e+00	4.049440e-04	
214	9.470747e-03	5.000000e+00	3.851906e-04	
215	9.520747e-03	5.000000e+00	3.664008e-04	
216	9.570747e-03	5.000000e+00	3.485276e-04	
217	9.620747e-03	5.000000e+00	3.315263e-04	
218	9.670747e-03	5.000000e+00	3.153543e-04	
219	9.720747e-03	5.000000e+00	2.999711e-04	
220	9.770747e-03	5.000000e+00	2.853384e-04	
221	9.820747e-03	5.000000e+00	2.714194e-04	
222	9.870747e-03	5.000000e+00	2.581795e-04	
223	9.920747e-03	5.000000e+00	2.455853e-04	
224	9.970747e-03	5.000000e+00	2.336056e-04	
225	1.002075e-02	5.000000e+00	2.222102e-04	
226	1.007075e-02	5.000000e+00	2.113707e-04	
227	1.012075e-02	5.000000e+00	2.010599e-04	
228	1.017075e-02	5.000000e+00	1.912521e-04	

Index   time            v(2)            div             
--------------------------------------------------------------------------------
229	1.022075e-02	5.000000e+00	1.819227e-04	
230	1.027075e-02	5.000000e+00	1.730484e-04	
231	1.032075e-02	5.000000e+00	1.646071e-04	
232	1.037075e-02	5.000000e+00	1.565774e-04	
233	1.042075e-02	5.000000e+00	1.489395e-04	
234	1.047075e-02	5.000000e+00	1.416742e-04	
235	1.052075e-02	5.000000e+00	1.347632e-04	
236	1.057075e-02	5.000000e+00	1.281894e-04	
237	1.062075e-02	5.000000e+00	1.219363e-04	
238	1.067075e-02	5.000000e+00	1.159882e-04	
239	1.072075e-02	5.000000e+00	1.103302e-04	
240	1.077075e-02	5.000000e+00	1.049483e-04	
241	1.082075e-02	5.000000e+00	9.982882e-05	
242	1.087075e-02	5.000000e+00	9.495913e-05	
243	1.092075e-02	5.000000e+00	9.032697e-05	
244	1.097075e-02	5.000000e+00	8.592078e-05	
245	1.102075e-02	5.000000e+00	8.172952e-05	
246	1.107075e-02	5.000000e+00	7.774272e-05	
247	1.112075e-02	5.000000e+00	7.395039e-05	
248	1.117075e-02	5.000000e+00	7.034305e-05	
249	1.122075e-02	5.000000e+00	6.691168e-05	
250	1.127075e-02	5.000000e+00	6.364770e-05	
251	1.132075e-02	5.000000e+00	6.054293e-05	
252	1.137075e-02	5.000000e+00	5.758962e-05	
253	1.142075e-02	5.000000e+00	5.478037e-05	
254	1.147075e-02	5.000000e+00	5.210816e-05	
255	1.152075e-02	5.000000e+00	4.956630e-05	
256	1.157075e-02	5.000000e+00	4.714843e-05	
257	1.162075e-02	5.000000e+00	4.484850e-05	
258	1.167075e-02	5.000000e+00	4.266077e-05	
259	1.172075e-02	5.000000e+00	4.057976e-05	
260	1.177075e-02	5.000000e+00	3.860026e-05	
261	1.182075e-02	5.000000e+00	3.671732e-05	
262	1.187075e-02	5.000000e+00	3.492623e-05	
263	1.192075e-02	5.000000e+00	3.322251e-05	
264	1.197075e-02	5.000000e+00	3.160190e-05	
265	1.202075e-02	5.000000e+00	3.006035e-05	
266	1.207075e-02	5.000000e+00	2.859399e-05	
267	1.212075e-02	5.000000e+00	2.719916e-05	
268	1.217075e-02	5.000000e+00	2.587237e-05	
269	1.222075e-02	5.000000e+00	2.461030e-05	
270	1.227075e-02	5.000000e+00	2.340980e-05	
271	1.232075e-02	5.000000e+00	2.226786e-05	
272	1.237075e-02	5.000000e+00	2.118162e-05	
273	1.242075e-02	5.000000e+00	2.014837e-05	
274	1.247075e-02	5.000000e+00	1.916552e-05	
275	1.252075e-02	5.000000e+00	1.823062e-05	
276	1.257075e-02	5.000000e+00	1.734132e-05	
277	1.262075e-02	5.000000e+00	1.649540e-05	
278	1.267075e-02	5.000000e+00	1.569075e-05	
279	1.272075e-02	5.000000e+00	1.492535e-05	
280	1.277075e-02	5.000000e+00	1.419728e-05	
281	1.282075e-02	5.000000e+00	1.350473e-05	
282	1.287075e-02	5.000000e+00	1.284596e-05	
283	1.292075e-02	5.000000e+00	1.221933e-05	
284	1.297075e-02	5.000000e+00	1.162327e-05	
285	1.302075e-02	5.000000e+00	1.105628e-05	
286	1.307075e-02	5.000000e+00	1.051695e-05	

Index   time            v(2)            div             
--------------------------------------------------------------------------------
287	1.312075e-02	5.000000e+00	1.000393e-05	
288	1.317075e-02	5.000000e+00	9.515930e-06	
289	1.322075e-02	5.000000e+00	9.051738e-06	
290	1.327075e-02	5.000000e+00	8.610190e-06	
291	1.332075e-02	5.000000e+00	8.190180e-06	
292	1.337075e-02	5.000000e+00	7.790659e-06	
293	1.342075e-02	5.000000e+00	7.410627e-06	
294	1.347075e-02	5.000000e+00	7.049133e-06	
295	1.352075e-02	5.000000e+00	6.705273e-06	
296	1.357075e-02	5.000000e+00	6.378187e-06	
297	1.362075e-02	5.000000e+00	6.067056e-06	
298	1.367075e-02	5.000000e+00	5.771102e-06	
299	1.372075e-02	5.000000e+00	5.489584e-06	
300	1.377075e-02	5.000000e+00	5.221800e-06	
301	1.382075e-02	5.000000e+00	4.967078e-06	
302	1.387075e-02	5.000000e+00	4.724781e-06	
303	1.392075e-02	5.000000e+00	4.494304e-06	
304	1.397075e-02	5.000000e+00	4.275070e-06	
305	1.402075e-02	5.000000e+00	4.066530e-06	
306	1.407075e-02	5.000000e+00	3.868163e-06	
307	1.412075e-02	5.000000e+00	3.679472e-06	
308	1.417075e-02	5.000000e+00	3.499985e-06	
309	1.422075e-02	5.000000e+00	3.329254e-06	
310	1.427075e-02	5.000000e+00	3.166852e-06	
311	1.432075e-02	5.000000e+00	3.012371e-06	
312	1.437075e-02	5.000000e+00	2.865426e-06	
313	1.442075e-02	5.000000e+00	2.725649e-06	
314	1.447075e-02	5.000000e+00	2.592691e-06	
315	1.452075e-02	5.000000e+00	2.466218e-06	
316	1.457075e-02	5.000000e+00	2.345915e-06	
317	1.462075e-02	5.000000e+00	2.231480e-06	
318	1.467075e-02	5.000000e+00	2.122627e-06	
319	1.472075e-02	5.000000e+00	2.019084e-06	
320	1.477075e-02	5.000000e+00	1.920593e-06	
321	1.482075e-02	5.000000e+00	1.826905e-06	
322	1.487075e-02	5.000000e+00	1.737788e-06	
323	1.492075e-02	5.000000e+00	1.653018e-06	
324	1.497075e-02	5.000000e+00	1.572383e-06	
325	1.502075e-02	5.000000e+00	1.495681e-06	
326	1.507075e-02	5.000000e+00	1.422721e-06	
327	1.512075e-02	5.000000e+00	1.353320e-06	
328	1.517075e-02	5.000000e+00	1.287304e-06	
329	1.522075e-02	5.000000e+00	1.224509e-06	
330	1.527075e-02	5.000000e+00	1.164777e-06	
331	1.532075e-02	5.000000e+00	1.107958e-06	
332	1.537075e-02	5.000000e+00	1.053912e-06	
333	1.542075e-02	5.000000e+00	1.002501e-06	
334	1.547075e-02	5.000000e+00	9.535989e-07	
335	1.552075e-02	5.000000e+00	9.070819e-07	
336	1.557075e-02	5.000000e+00	8.628340e-07	
337	1.562075e-02	5.000000e+00	8.207445e-07	
338	1.567075e-02	5.000000e+00	7.807082e-07	
339	1.572075e-02	5.000000e+00	7.426249e-07	
340	1.577075e-02	5.000000e+00	7.063993e-07	
341	1.582075e-02	5.000000e+00	6.719408e-07	
342	1.587075e-02	5.000000e+00	6.391632e-07	
343	1.592075e-02	5.000000e+00	6.079845e-07	
344	1.597075e-02	5.000000e+00	5.783267e-07	

Index   time            v(2)            div             
--------------------------------------------------------------------------------
345	1.602075e-02	5.000000e+00	5.501156e-07	
346	1.607075e-02	5.000000e+00	5.232807e-07	
347	1.612075e-02	5.000000e+00	4.977548e-07	
348	1.617075e-02	5.000000e+00	4.734741e-07	
349	1.622075e-02	5.000000e+00	4.503778e-07	
350	1.627075e-02	5.000000e+00	4.284082e-07	
351	1.632075e-02	5.000000e+00	4.075102e-07	
352	1.637075e-02	5.000000e+00	3.876317e-07	
353	1.642075e-02	5.000000e+00	3.687228e-07	
354	1.647075e-02	5.000000e+00	3.507363e-07	
355	1.652075e-02	5.000000e+00	3.336272e-07	
356	1.657075e-02	5.000000e+00	3.173527e-07	
357	1.662075e-02	5.000000e+00	3.018721e-07	
358	1.667075e-02	5.000000e+00	2.871466e-07	
359	1.672075e-02	5.000000e+00	2.731395e-07	
360	1.677075e-02	5.000000e+00	2.598156e-07	
361	1.682075e-02	5.000000e+00	2.471417e-07	
362	1.687075e-02	5.000000e+00	2.350860e-07	
363	1.692075e-02	5.000000e+00	2.236184e-07	
364	1.697075e-02	5.000000e+00	2.127102e-07	
365	1.702075e-02	5.000000e+00	2.023341e-07	
366	1.707075e-02	5.000000e+00	1.924641e-07	
367	1.712075e-02	5.000000e+00	1.830756e-07	
368	1.717075e-02	5.000000e+00	1.741451e-07	
369	1.722075e-02	5.000000e+00	1.656502e-07	
370	1.727075e-02	5.000000e+00	1.575697e-07	
371	1.732075e-02	5.000000e+00	1.498834e-07	
372	1.737075e-02	5.000000e+00	1.425720e-07	
373	1.742075e-02	5.000000e+00	1.356173e-07	
374	1.747075e-02	5.000000e+00	1.290018e-07	
375	1.752075e-02	5.000000e+00	1.227090e-07	
376	1.757075e-02	5.000000e+00	1.167232e-07	
377	1.762075e-02	5.000000e+00	1.110294e-07	
378	1.767075e-02	5.000000e+00	1.056133e-07	
379	1.772075e-02	5.000000e+00	1.004615e-07	
380	1.777075e-02	5.000000e+00	9.556090e-08	
381	1.782075e-02	5.000000e+00	9.089940e-08	
382	1.787075e-02	5.000000e+00	8.646528e-08	
383	1.792075e-02	5.000000e+00	8.224746e-08	
384	1.797075e-02	5.000000e+00	7.823539e-08	
385	1.802075e-02	5.000000e+00	7.441903e-08	
386	1.807075e-02	5.000000e+00	7.078883e-08	
387	1.812075e-02	5.000000e+00	6.733572e-08	
388	1.817075e-02	5.000000e+00	6.405105e-08	
389	1.822075e-02	5.000000e+00	6.092661e-08	
390	1.827075e-02	5.000000e+00	5.795458e-08	
391	1.832075e-02	5.000000e+00	5.512752e-08	
392	1.837075e-02	5.000000e+00	5.243838e-08	
393	1.842075e-02	5.000000e+00	4.988041e-08	
394	1.847075e-02	5.000000e+00	4.744722e-08	
395	1.852075e-02	5.000000e+00	4.513272e-08	
396	1.857075e-02	5.000000e+00	4.293112e-08	
397	1.862075e-02	5.000000e+00	4.083692e-08	
398	1.867075e-02	5.000000e+00	3.884487e-08	
399	1.872075e-02	5.000000e+00	3.695000e-08	
400	1.877075e-02	5.000000e+00	3.514756e-08	
401	1.882075e-02	5.000000e+00	3.343305e-08	
402	1.887075e-02	5.000000e+00	3.180217e-08	

Index   time            v(2)            div             
--------------------------------------------------------------------------------
403	1.892075e-02	5.000000e+00	3.025084e-08	
404	1.897075e-02	5.000000e+00	2.877519e-08	
405	1.902075e-02	5.000000e+00	2.737152e-08	
406	1.907075e-02	5.000000e+00	2.603633e-08	
407	1.912075e-02	5.000000e+00	2.476626e-08	
408	1.917075e-02	5.000000e+00	2.355815e-08	
409	1.922075e-02	5.000000e+00	2.240897e-08	
410	1.927075e-02	5.000000e+00	2.131585e-08	
411	1.932075e-02	5.000000e+00	2.027605e-08	
412	1.937075e-02	5.000000e+00	1.928698e-08	
413	1.942075e-02	5.000000e+00	1.834615e-08	
414	1.947075e-02	5.000000e+00	1.745122e-08	
415	1.952075e-02	5.000000e+00	1.659994e-08	
416	1.957075e-02	5.000000e+00	1.579019e-08	
417	1.962075e-02	5.000000e+00	1.501993e-08	
418	1.967075e-02	5.000000e+00	1.428725e-08	
419	1.972075e-02	5.000000e+00	1.359031e-08	
420	1.977075e-02	5.000000e+00	1.292737e-08	
421	1.982075e-02	5.000000e+00	1.229677e-08	
422	1.987075e-02	5.000000e+00	1.169693e-08	
423	1.992075e-02	5.000000e+00	1.112634e-08	
424	1.997075e-02	5.000000e+00	1.058360e-08	
425	2.002075e-02	5.000000e+00	1.006732e-08	
426	2.007075e-02	5.000000e+00	9.576232e-09	
427	2.012075e-02	5.000000e+00	9.109098e-09	
428	2.017075e-02	5.000000e+00	8.664752e-09	
429	2.022075e-02	5.000000e+00	8.242083e-09	
430	2.027075e-02	5.000000e+00	7.840029e-09	
431	2.032075e-02	5.000000e+00	7.457587e-09	
432	2.037075e-02	5.000000e+00	7.093803e-09	
433	2.042075e-02	5.000000e+00	6.747763e-09	
434	2.047075e-02	5.000000e+00	6.418603e-09	
435	2.052075e-02	5.000000e+00	6.105500e-09	
436	2.057075e-02	5.000000e+00	5.807670e-09	
437	2.062075e-02	5.000000e+00	5.524369e-09	
438	2.067075e-02	5.000000e+00	5.254889e-09	
439	2.072075e-02	5.000000e+00	4.998554e-09	
440	2.077075e-02	5.000000e+00	4.754722e-09	
441	2.082075e-02	5.000000e+00	4.522785e-09	
442	2.087075e-02	5.000000e+00	4.302161e-09	
443	2.092075e-02	5.000000e+00	4.092301e-09	
444	2.097075e-02	5.000000e+00	3.892676e-09	
445	2.102075e-02	5.000000e+00	3.702790e-09	
446	2.107075e-02	5.000000e+00	3.522167e-09	
447	2.112075e-02	5.000000e+00	3.350354e-09	
448	2.117075e-02	5.000000e+00	3.186922e-09	
449	2.122075e-02	5.000000e+00	3.031463e-09	
450	2.127075e-02	5.000000e+00	2.883587e-09	
451	2.132075e-02	5.000000e+00	2.742923e-09	
452	2.137075e-02	5.000000e+00	2.609121e-09	
453	2.142075e-02	5.000000e+00	2.481845e-09	
454	2.147075e-02	5.000000e+00	2.360779e-09	
455	2.152075e-02	5.000000e+00	2.245620e-09	
456	2.157075e-02	5.000000e+00	2.136076e-09	
457	2.162075e-02	5.000000e+00	2.031877e-09	
458	2.167075e-02	5.000000e+00	1.932761e-09	
459	2.172075e-02	5.000000e+00	1.838480e-09	
460	2.177075e-02	5.000000e+00	1.748797e-09	

Index   time            v(2)            div             
--------------------------------------------------------------------------------
461	2.182075e-02	5.000000e+00	1.663489e-09	
462	2.187075e-02	5.000000e+00	1.582343e-09	
463	2.192075e-02	5.000000e+00	1.505156e-09	
464	2.197075e-02	5.000000e+00	1.431735e-09	
465	2.202075e-02	5.000000e+00	1.361895e-09	
466	2.207075e-02	5.000000e+00	1.295461e-09	
467	2.212075e-02	5.000000e+00	1.232269e-09	
468	2.217075e-02	5.000000e+00	1.172158e-09	
469	2.222075e-02	5.000000e+00	1.114980e-09	
470	2.227075e-02	5.000000e+00	1.060591e-09	
471	2.232075e-02	5.000000e+00	1.008853e-09	
472	2.237075e-02	5.000000e+00	9.596413e-10	
473	2.242075e-02	5.000000e+00	9.128298e-10	
474	2.247075e-02	5.000000e+00	8.683010e-10	
475	2.252075e-02	5.000000e+00	8.259446e-10	
476	2.257075e-02	5.000000e+00	7.856560e-10	
477	2.262075e-02	5.000000e+00	7.473320e-10	
478	2.267075e-02	5.000000e+00	7.108767e-10	
479	2.272075e-02	5.000000e+00	6.761995e-10	
480	2.277075e-02	5.000000e+00	6.432144e-10	
481	2.282075e-02	5.000000e+00	6.118377e-10	
482	2.287075e-02	5.000000e+00	5.819922e-10	
483	2.292075e-02	5.000000e+00	5.536025e-10	
484	2.297075e-02	5.000000e+00	5.265974e-10	
485	2.302075e-02	5.000000e+00	5.009104e-10	
486	2.307075e-02	5.000000e+00	4.764757e-10	
487	2.312075e-02	5.000000e+00	4.532339e-10	
488	2.317075e-02	5.000000e+00	4.311254e-10	
489	2.322075e-02	5.000000e+00	4.100942e-10	
490	2.327075e-02	5.000000e+00	3.900889e-10	
491	2.332075e-02	5.000000e+00	3.710596e-10	
492	2.337075e-02	5.000000e+00	3.529586e-10	
493	2.342075e-02	5.000000e+00	3.357403e-10	
494	2.347075e-02	5.000000e+00	3.193632e-10	
495	2.352075e-02	5.000000e+00	3.037846e-10	
496	2.357075e-02	5.000000e+00	2.889662e-10	
497	2.362075e-02	5.000000e+00	2.748690e-10	
498	2.367075e-02	5.000000e+00	2.614611e-10	
499	2.372075e-02	5.000000e+00	2.487077e-10	
500	2.377075e-02	5.000000e+00	2.365752e-10	
501	2.382075e-02	5.000000e+00	2.250351e-10	
502	2.387075e-02	5.000000e+00	2.140563e-10	
503	2.392075e-02	5.000000e+00	2.036140e-10	
504	2.397075e-02	5.000000e+00	1.936815e-10	
505	2.402075e-02	5.000000e+00	1.842331e-10	
506	2.407075e-02	5.000000e+00	1.752465e-10	
507	2.412075e-02	5.000000e+00	1.666978e-10	
508	2.417075e-02	5.000000e+00	1.585656e-10	
509	2.422075e-02	5.000000e+00	1.508313e-10	
510	2.427075e-02	5.000000e+00	1.434746e-10	
511	2.432075e-02	5.000000e+00	1.364757e-10	
512	2.437075e-02	5.000000e+00	1.298188e-10	
513	2.442075e-02	5.000000e+00	1.234870e-10	
514	2.447075e-02	5.000000e+00	1.174634e-10	
515	2.452075e-02	5.000000e+00	1.117328e-10	
516	2.457075e-02	5.000000e+00	1.062812e-10	
517	2.462075e-02	5.000000e+00	1.010969e-10	
518	2.467075e-02	5.000000e+00	9.616485e-11	

Index   time            v(2)            div             
--------------------------------------------------------------------------------
519	2.472075e-02	5.000000e+00	9.147438e-11	
520	2.477075e-02	5.000000e+00	8.701218e-11	
521	2.482075e-02	5.000000e+00	8.276846e-11	
522	2.487075e-02	5.000000e+00	7.873169e-11	
523	2.492075e-02	5.000000e+00	7.489209e-11	
524	2.497075e-02	5.000000e+00	7.123901e-11	
525	2.502075e-02	5.000000e+00	6.776268e-11	
526	2.507075e-02	5.000000e+00	6.445688e-11	
527	2.512075e-02	5.000000e+00	6.131184e-11	
528	2.517075e-02	5.000000e+00	5.832046e-11	
529	2.522075e-02	5.000000e+00	5.547562e-11	
530	2.527075e-02	5.000000e+00	5.277023e-11	
531	2.532075e-02	5.000000e+00	5.019629e-11	
532	2.537075e-02	5.000000e+00	4.774758e-11	
533	2.542075e-02	5.000000e+00	4.541789e-11	
534	2.547075e-02	5.000000e+00	4.320277e-11	
535	2.552075e-02	5.000000e+00	4.109602e-11	
536	2.557075e-02	5.000000e+00	3.909140e-11	
537	2.562075e-02	5.000000e+00	3.718359e-11	
538	2.567075e-02	5.000000e+00	3.536993e-11	
539	2.572075e-02	5.000000e+00	3.364420e-11	
540	2.577075e-02	5.000000e+00	3.200284e-11	
541	2.582075e-02	5.000000e+00	3.044143e-11	
542	2.587075e-02	5.000000e+00	2.895550e-11	
543	2.592075e-02	5.000000e+00	2.754330e-11	
544	2.597075e-02	5.000000e+00	2.620038e-11	
545	2.602075e-02	5.000000e+00	2.492229e-11	
546	2.607075e-02	5.000000e+00	2.370726e-11	
547	2.612075e-02	5.000000e+00	2.255085e-11	
548	2.617075e-02	5.000000e+00	2.145040e-11	
549	2.622075e-02	5.000000e+00	2.040412e-11	
550	2.627075e-02	5.000000e+00	1.940847e-11	
551	2.632075e-02	5.000000e+00	1.846168e-11	
552	2.637075e-02	5.000000e+00	1.756195e-11	
553	2.642075e-02	5.000000e+00	1.670575e-11	
554	2.647075e-02	5.000000e+00	1.589129e-11	
555	2.652075e-02	5.000000e+00	1.511502e-11	
556	2.657075e-02	5.000000e+00	1.437783e-11	
557	2.662075e-02	5.000000e+00	1.367528e-11	
558	2.667075e-02	5.000000e+00	1.300826e-11	
559	2.672075e-02	5.000000e+00	1.237410e-11	
560	2.677075e-02	5.000000e+00	1.176925e-11	
561	2.682075e-02	5.000000e+00	1.119549e-11	
562	2.687075e-02	5.000000e+00	1.065015e-11	
563	2.692075e-02	5.000000e+00	1.013145e-11	
564	2.697075e-02	5.000000e+00	9.637624e-12	
565	2.702075e-02	5.000000e+00	9.167778e-12	
566	2.707075e-02	5.000000e+00	8.721024e-12	
567	2.712075e-02	5.000000e+00	8.296475e-12	
568	2.717075e-02	5.000000e+00	7.893242e-12	
569	2.722075e-02	5.000000e+00	7.507772e-12	
570	2.727075e-02	5.000000e+00	7.140954e-12	
571	2.732075e-02	5.000000e+00	6.793677e-12	
572	2.737075e-02	5.000000e+00	6.463274e-12	
573	2.742075e-02	5.000000e+00	6.147971e-12	
574	2.747075e-02	5.000000e+00	5.847767e-12	
575	2.752075e-02	5.000000e+00	5.561773e-12	
576	2.757075e-02	5.000000e+00	5.290879e-12	

Index   time            v(2)            div             
--------------------------------------------------------------------------------
577	2.762075e-02	5.000000e+00	5.032419e-12	
578	2.767075e-02	5.000000e+00	4.788170e-12	
579	2.772075e-02	5.000000e+00	4.555467e-12	
580	2.777075e-02	5.000000e+00	4.334311e-12	
581	2.782075e-02	5.000000e+00	4.123812e-12	
582	2.787075e-02	5.000000e+00	3.922196e-12	
583	2.792075e-02	5.000000e+00	3.730349e-12	
584	2.797075e-02	5.000000e+00	3.548273e-12	
585	2.802075e-02	5.000000e+00	3.375078e-12	
586	2.807075e-02	5.000000e+00	3.210765e-12	
587	2.812075e-02	5.000000e+00	3.053557e-12	
588	2.817075e-02	5.000000e+00	2.904343e-12	
589	2.822075e-02	5.000000e+00	2.763123e-12	
590	2.827075e-02	5.000000e+00	2.628120e-12	
591	2.832075e-02	5.000000e+00	2.500222e-12	
592	2.837075e-02	5.000000e+00	2.377654e-12	
593	2.842075e-02	5.000000e+00	2.261302e-12	
594	2.847075e-02	5.000000e+00	2.150280e-12	
595	2.852075e-02	5.000000e+00	2.044587e-12	
596	2.857075e-02	5.000000e+00	1.945111e-12	
597	2.862075e-02	5.000000e+00	1.850076e-12	
598	2.867075e-02	5.000000e+00	1.759481e-12	
599	2.872075e-02	5.000000e+00	1.674216e-12	
600	2.877075e-02	5.000000e+00	1.593392e-12	
601	2.882075e-02	5.000000e+00	1.515232e-12	
602	2.887075e-02	5.000000e+00	1.441514e-12	
603	2.892075e-02	5.000000e+00	1.370459e-12	
604	2.897075e-02	5.000000e+00	1.304734e-12	
605	2.902075e-02	5.000000e+00	1.240785e-12	
606	2.907075e-02	5.000000e+00	1.180389e-12	
607	2.912075e-02	5.000000e+00	1.123546e-12	
608	2.917075e-02	5.000000e+00	1.069367e-12	
609	2.922075e-02	5.000000e+00	1.018741e-12	
610	2.927075e-02	5.000000e+00	9.690027e-13	
611	2.932075e-02	5.000000e+00	9.219292e-13	
612	2.937075e-02	5.000000e+00	8.766321e-13	
613	2.942075e-02	5.000000e+00	8.339995e-13	
614	2.947075e-02	5.000000e+00	7.931433e-13	
615	2.952075e-02	5.000000e+00	7.558398e-13	
616	2.957075e-02	5.000000e+00	7.203127e-13	
617	2.962075e-02	5.000000e+00	6.865619e-13	
618	2.967075e-02	5.000000e+00	6.536993e-13	
619	2.972075e-02	5.000000e+00	6.217249e-13	
620	2.977075e-02	5.000000e+00	5.915268e-13	
621	2.982075e-02	5.000000e+00	5.631051e-13	
622	2.987075e-02	5.000000e+00	5.364598e-13	
623	2.992075e-02	5.000000e+00	5.098144e-13	
624	2.997075e-02	5.000000e+00	4.849454e-13	
625	3.002075e-02	5.000000e+00	4.618528e-13	
626	3.007075e-02	5.000000e+00	4.387601e-13	
627	3.012075e-02	5.000000e+00	4.165557e-13	
628	3.017075e-02	5.000000e+00	3.961276e-13	
629	3.022075e-02	5.000000e+00	3.774758e-13	
630	3.027075e-02	5.000000e+00	3.588241e-13	
631	3.032075e-02	5.000000e+00	3.428369e-13	
632	3.037075e-02	5.000000e+00	3.268497e-13	
633	3.042075e-02	5.000000e+00	3.117506e-13	
634	3.047075e-02	5.000000e+00	2.975398e-13	

Index   time            v(2)            div             
--------------------------------------------------------------------------------
635	3.052075e-02	5.000000e+00	2.824407e-13	
636	3.057075e-02	5.000000e+00	2.682299e-13	
637	3.062075e-02	5.000000e+00	2.549072e-13	
638	3.067075e-02	5.000000e+00	2.424727e-13	
639	3.072075e-02	5.000000e+00	2.309264e-13	
640	3.077075e-02	5.000000e+00	2.193801e-13	
641	3.082075e-02	5.000000e+00	2.087219e-13	
642	3.087075e-02	5.000000e+00	1.989520e-13	
643	3.092075e-02	5.000000e+00	1.891820e-13	
644	3.097075e-02	5.000000e+00	1.794120e-13	
645	3.102075e-02	5.000000e+00	1.714184e-13	
646	3.107075e-02	5.000000e+00	1.634248e-13	
647	3.112075e-02	5.000000e+00	1.545430e-13	
648	3.117075e-02	5.000000e+00	1.474376e-13	
649	3.122075e-02	5.000000e+00	1.403322e-13	
650	3.127075e-02	5.000000e+00	1.332268e-13	
651	3.132075e-02	5.000000e+00	1.278977e-13	
652	3.137075e-02	5.000000e+00	1.216804e-13	
653	3.142075e-02	5.000000e+00	1.163514e-13	
654	3.147075e-02	5.000000e+00	1.101341e-13	
655	3.152075e-02	5.000000e+00	1.048051e-13	
656	3.157075e-02	5.000000e+00	9.858780e-14	
657	3.162075e-02	5.000000e+00	9.414691e-14	
658	3.167075e-02	5.000000e+00	9.059420e-14	
659	3.172075e-02	5.000000e+00	8.526513e-14	
660	3.177075e-02	5.000000e+00	8.082424e-14	
661	3.182075e-02	5.000000e+00	7.638334e-14	
662	3.187075e-02	5.000000e+00	7.283063e-14	
663	3.192075e-02	5.000000e+00	6.927792e-14	
664	3.197075e-02	5.000000e+00	6.661338e-14	
665	3.202075e-02	5.000000e+00	6.306067e-14	
666	3.207075e-02	5.000000e+00	6.039613e-14	
667	3.212075e-02	5.000000e+00	5.861978e-14	
668	3.217075e-02	5.000000e+00	5.684342e-14	
669	3.222075e-02	5.000000e+00	5.329071e-14	
670	3.227075e-02	5.000000e+00	5.062617e-14	
671	3.232075e-02	5.000000e+00	4.796163e-14	
672	3.237075e-02	5.000000e+00	4.529710e-14	
673	3.242075e-02	5.000000e+00	4.352074e-14	
674	3.247075e-02	5.000000e+00	3.996803e-14	
675	3.252075e-02	5.000000e+00	3.730349e-14	
676	3.257075e-02	5.000000e+00	3.552714e-14	
677	3.262075e-02	5.000000e+00	3.375078e-14	
678	3.267075e-02	5.000000e+00	3.286260e-14	
679	3.272075e-02	5.000000e+00	3.019807e-14	
680	3.277075e-02	5.000000e+00	2.753353e-14	
681	3.282075e-02	5.000000e+00	2.575717e-14	
682	3.287075e-02	5.000000e+00	2.486900e-14	
683	3.292075e-02	5.000000e+00	2.486900e-14	
684	3.297075e-02	5.000000e+00	2.486900e-14	
685	3.302075e-02	5.000000e+00	2.486900e-14	
686	3.307075e-02	5.000000e+00	2.486900e-14	
687	3.312075e-02	5.000000e+00	2.486900e-14	
688	3.317075e-02	5.000000e+00	2.486900e-14	
689	3.322075e-02	5.000000e+00	2.486900e-14	
690	3.327075e-02	5.000000e+00	2.486900e-14	
691	3.332075e-02	5.000000e+00	2.486900e-14	
692	3.337075e-02	5.000000e+00	2.486900e-14	

Index   time            v(2)            div             
--------------------------------------------------------------------------------
693	3.342075e-02	5.000000e+00	2.486900e-14	
694	3.347075e-02	5.000000e+00	2.486900e-14	
695	3.352075e-02	5.000000e+00	2.486900e-14	
696	3.357075e-02	5.000000e+00	2.486900e-14	
697	3.362075e-02	5.000000e+00	2.486900e-14	
698	3.367075e-02	5.000000e+00	2.486900e-14	
699	3.372075e-02	5.000000e+00	2.486900e-14	
700	3.377075e-02	5.000000e+00	2.486900e-14	
701	3.382075e-02	5.000000e+00	2.486900e-14	
702	3.387075e-02	5.000000e+00	2.486900e-14	
703	3.392075e-02	5.000000e+00	2.486900e-14	
704	3.397075e-02	5.000000e+00	2.486900e-14	
705	3.402075e-02	5.000000e+00	2.486900e-14	
706	3.407075e-02	5.000000e+00	2.486900e-14	
707	3.412075e-02	5.000000e+00	2.486900e-14	
708	3.417075e-02	5.000000e+00	2.486900e-14	
709	3.422075e-02	5.000000e+00	2.486900e-14	
710	3.427075e-02	5.000000e+00	2.486900e-14	
711	3.432075e-02	5.000000e+00	2.486900e-14	
712	3.437075e-02	5.000000e+00	2.486900e-14	
713	3.442075e-02	5.000000e+00	2.486900e-14	
714	3.447075e-02	5.000000e+00	2.486900e-14	
715	3.452075e-02	5.000000e+00	2.486900e-14	
716	3.457075e-02	5.000000e+00	2.486900e-14	
717	3.462075e-02	5.000000e+00	2.486900e-14	
718	3.467075e-02	5.000000e+00	2.486900e-14	
719	3.472075e-02	5.000000e+00	2.486900e-14	
720	3.477075e-02	5.000000e+00	2.486900e-14	
721	3.482075e-02	5.000000e+00	2.486900e-14	
722	3.487075e-02	5.000000e+00	2.486900e-14	
723	3.492075e-02	5.000000e+00	2.486900e-14	
724	3.497075e-02	5.000000e+00	2.486900e-14	
725	3.502075e-02	5.000000e+00	2.486900e-14	
726	3.507075e-02	5.000000e+00	2.486900e-14	
727	3.512075e-02	5.000000e+00	2.486900e-14	
728	3.517075e-02	5.000000e+00	2.486900e-14	
729	3.522075e-02	5.000000e+00	2.486900e-14	
730	3.527075e-02	5.000000e+00	2.486900e-14	
731	3.532075e-02	5.000000e+00	2.486900e-14	
732	3.537075e-02	5.000000e+00	2.486900e-14	
733	3.542075e-02	5.000000e+00	2.486900e-14	
734	3.547075e-02	5.000000e+00	2.486900e-14	
735	3.552075e-02	5.000000e+00	2.486900e-14	
736	3.557075e-02	5.000000e+00	2.486900e-14	
737	3.562075e-02	5.000000e+00	2.486900e-14	
738	3.567075e-02	5.000000e+00	2.486900e-14	
739	3.572075e-02	5.000000e+00	2.486900e-14	
740	3.577075e-02	5.000000e+00	2.486900e-14	
741	3.582075e-02	5.000000e+00	2.486900e-14	
742	3.587075e-02	5.000000e+00	2.486900e-14	
743	3.592075e-02	5.000000e+00	2.486900e-14	
744	3.597075e-02	5.000000e+00	2.486900e-14	
745	3.602075e-02	5.000000e+00	2.486900e-14	
746	3.607075e-02	5.000000e+00	2.486900e-14	
747	3.612075e-02	5.000000e+00	2.486900e-14	
748	3.617075e-02	5.000000e+00	2.486900e-14	
749	3.622075e-02	5.000000e+00	2.486900e-14	
750	3.627075e-02	5.000000e+00	2.486900e-14	

Index   time            v(2)            div             
--------------------------------------------------------------------------------
751	3.632075e-02	5.000000e+00	2.486900e-14	
752	3.637075e-02	5.000000e+00	2.486900e-14	
753	3.642075e-02	5.000000e+00	2.486900e-14	
754	3.647075e-02	5.000000e+00	2.486900e-14	
755	3.652075e-02	5.000000e+00	2.486900e-14	
756	3.657075e-02	5.000000e+00	2.486900e-14	
757	3.662075e-02	5.000000e+00	2.486900e-14	
758	3.667075e-02	5.000000e+00	2.486900e-14	
759	3.672075e-02	5.000000e+00	2.486900e-14	
760	3.677075e-02	5.000000e+00	2.486900e-14	
761	3.682075e-02	5.000000e+00	2.486900e-14	
762	3.687075e-02	5.000000e+00	2.486900e-14	
763	3.692075e-02	5.000000e+00	2.486900e-14	
764	3.697075e-02	5.000000e+00	2.486900e-14	
765	3.702075e-02	5.000000e+00	2.486900e-14	
766	3.707075e-02	5.000000e+00	2.486900e-14	
767	3.712075e-02	5.000000e+00	2.486900e-14	
768	3.717075e-02	5.000000e+00	2.486900e-14	
769	3.722075e-02	5.000000e+00	2.486900e-14	
770	3.727075e-02	5.000000e+00	2.486900e-14	
771	3.732075e-02	5.000000e+00	2.486900e-14	
772	3.737075e-02	5.000000e+00	2.486900e-14	
773	3.742075e-02	5.000000e+00	2.486900e-14	
774	3.747075e-02	5.000000e+00	2.486900e-14	
775	3.752075e-02	5.000000e+00	2.486900e-14	
776	3.757075e-02	5.000000e+00	2.486900e-14	
777	3.762075e-02	5.000000e+00	2.486900e-14	
778	3.767075e-02	5.000000e+00	2.486900e-14	
779	3.772075e-02	5.000000e+00	2.486900e-14	
780	3.777075e-02	5.000000e+00	2.486900e-14	
781	3.782075e-02	5.000000e+00	2.486900e-14	
782	3.787075e-02	5.000000e+00	2.486900e-14	
783	3.792075e-02	5.000000e+00	2.486900e-14	
784	3.797075e-02	5.000000e+00	2.486900e-14	
785	3.802075e-02	5.000000e+00	2.486900e-14	
786	3.807075e-02	5.000000e+00	2.486900e-14	
787	3.812075e-02	5.000000e+00	2.486900e-14	
788	3.817075e-02	5.000000e+00	2.486900e-14	
789	3.822075e-02	5.000000e+00	2.486900e-14	
790	3.827075e-02	5.000000e+00	2.486900e-14	
791	3.832075e-02	5.000000e+00	2.486900e-14	
792	3.837075e-02	5.000000e+00	2.486900e-14	
793	3.842075e-02	5.000000e+00	2.486900e-14	
794	3.847075e-02	5.000000e+00	2.486900e-14	
795	3.852075e-02	5.000000e+00	2.486900e-14	
796	3.857075e-02	5.000000e+00	2.486900e-14	
797	3.862075e-02	5.000000e+00	2.486900e-14	
798	3.867075e-02	5.000000e+00	2.486900e-14	
799	3.872075e-02	5.000000e+00	2.486900e-14	
800	3.877075e-02	5.000000e+00	2.486900e-14	
801	3.882075e-02	5.000000e+00	2.486900e-14	
802	3.887075e-02	5.000000e+00	2.486900e-14	
803	3.892075e-02	5.000000e+00	2.486900e-14	
804	3.897075e-02	5.000000e+00	2.486900e-14	
805	3.902075e-02	5.000000e+00	2.486900e-14	
806	3.907075e-02	5.000000e+00	2.486900e-14	
807	3.912075e-02	5.000000e+00	2.486900e-14	
808	3.917075e-02	5.000000e+00	2.486900e-14	

Index   time            v(2)            div             
--------------------------------------------------------------------------------
809	3.922075e-02	5.000000e+00	2.486900e-14	
810	3.927075e-02	5.000000e+00	2.486900e-14	
811	3.932075e-02	5.000000e+00	2.486900e-14	
812	3.937075e-02	5.000000e+00	2.486900e-14	
813	3.942075e-02	5.000000e+00	2.486900e-14	
814	3.947075e-02	5.000000e+00	2.486900e-14	
815	3.952075e-02	5.000000e+00	2.486900e-14	
816	3.957075e-02	5.000000e+00	2.486900e-14	
817	3.962075e-02	5.000000e+00	2.486900e-14	
818	3.967075e-02	5.000000e+00	2.486900e-14	
819	3.972075e-02	5.000000e+00	2.486900e-14	
820	3.977075e-02	5.000000e+00	2.486900e-14	
821	3.982075e-02	5.000000e+00	2.486900e-14	
822	3.987075e-02	5.000000e+00	2.486900e-14	
823	3.992075e-02	5.000000e+00	2.486900e-14	
824	3.997075e-02	5.000000e+00	2.486900e-14	
825	4.002075e-02	5.000000e+00	2.486900e-14	
826	4.007075e-02	5.000000e+00	2.486900e-14	
827	4.012075e-02	5.000000e+00	2.486900e-14	
828	4.017075e-02	5.000000e+00	2.486900e-14	
829	4.022075e-02	5.000000e+00	2.486900e-14	
830	4.027075e-02	5.000000e+00	2.486900e-14	
831	4.032075e-02	5.000000e+00	2.486900e-14	
832	4.037075e-02	5.000000e+00	2.486900e-14	
833	4.042075e-02	5.000000e+00	2.486900e-14	
834	4.047075e-02	5.000000e+00	2.486900e-14	
835	4.052075e-02	5.000000e+00	2.486900e-14	
836	4.057075e-02	5.000000e+00	2.486900e-14	
837	4.062075e-02	5.000000e+00	2.486900e-14	
838	4.067075e-02	5.000000e+00	2.486900e-14	
839	4.072075e-02	5.000000e+00	2.486900e-14	
840	4.077075e-02	5.000000e+00	2.486900e-14	
841	4.082075e-02	5.000000e+00	2.486900e-14	
842	4.087075e-02	5.000000e+00	2.486900e-14	
843	4.092075e-02	5.000000e+00	2.486900e-14	
844	4.097075e-02	5.000000e+00	2.486900e-14	
845	4.102075e-02	5.000000e+00	2.486900e-14	
846	4.107075e-02	5.000000e+00	2.486900e-14	
847	4.112075e-02	5.000000e+00	2.486900e-14	
848	4.117075e-02	5.000000e+00	2.486900e-14	
849	4.122075e-02	5.000000e+00	2.486900e-14	
850	4.127075e-02	5.000000e+00	2.486900e-14	
851	4.132075e-02	5.000000e+00	2.486900e-14	
852	4.137075e-02	5.000000e+00	2.486900e-14	
853	4.142075e-02	5.000000e+00	2.486900e-14	
854	4.147075e-02	5.000000e+00	2.486900e-14	
855	4.152075e-02	5.000000e+00	2.486900e-14	
856	4.157075e-02	5.000000e+00	2.486900e-14	
857	4.162075e-02	5.000000e+00	2.486900e-14	
858	4.167075e-02	5.000000e+00	2.486900e-14	
859	4.172075e-02	5.000000e+00	2.486900e-14	
860	4.177075e-02	5.000000e+00	2.486900e-14	
861	4.182075e-02	5.000000e+00	2.486900e-14	
862	4.187075e-02	5.000000e+00	2.486900e-14	
863	4.192075e-02	5.000000e+00	2.486900e-14	
864	4.197075e-02	5.000000e+00	2.486900e-14	
865	4.202075e-02	5.000000e+00	2.486900e-14	
866	4.207075e-02	5.000000e+00	2.486900e-14	

Index   time            v(2)            div             
--------------------------------------------------------------------------------
867	4.212075e-02	5.000000e+00	2.486900e-14	
868	4.217075e-02	5.000000e+00	2.486900e-14	
869	4.222075e-02	5.000000e+00	2.486900e-14	
870	4.227075e-02	5.000000e+00	2.486900e-14	
871	4.232075e-02	5.000000e+00	2.486900e-14	
872	4.237075e-02	5.000000e+00	2.486900e-14	
873	4.242075e-02	5.000000e+00	2.486900e-14	
874	4.247075e-02	5.000000e+00	2.486900e-14	
875	4.252075e-02	5.000000e+00	2.486900e-14	
876	4.257075e-02	5.000000e+00	2.486900e-14	
877	4.262075e-02	5.000000e+00	2.486900e-14	
878	4.267075e-02	5.000000e+00	2.486900e-14	
879	4.272075e-02	5.000000e+00	2.486900e-14	
880	4.277075e-02	5.000000e+00	2.486900e-14	
881	4.282075e-02	5.000000e+00	2.486900e-14	
882	4.287075e-02	5.000000e+00	2.486900e-14	
883	4.292075e-02	5.000000e+00	2.486900e-14	
884	4.297075e-02	5.000000e+00	2.486900e-14	
885	4.302075e-02	5.000000e+00	2.486900e-14	
886	4.307075e-02	5.000000e+00	2.486900e-14	
887	4.312075e-02	5.000000e+00	2.486900e-14	
888	4.317075e-02	5.000000e+00	2.486900e-14	
889	4.322075e-02	5.000000e+00	2.486900e-14	
890	4.327075e-02	5.000000e+00	2.486900e-14	
891	4.332075e-02	5.000000e+00	2.486900e-14	
892	4.337075e-02	5.000000e+00	2.486900e-14	
893	4.342075e-02	5.000000e+00	2.486900e-14	
894	4.347075e-02	5.000000e+00	2.486900e-14	
895	4.352075e-02	5.000000e+00	2.486900e-14	
896	4.357075e-02	5.000000e+00	2.486900e-14	
897	4.362075e-02	5.000000e+00	2.486900e-14	
898	4.367075e-02	5.000000e+00	2.486900e-14	
899	4.372075e-02	5.000000e+00	2.486900e-14	
900	4.377075e-02	5.000000e+00	2.486900e-14	
901	4.382075e-02	5.000000e+00	2.486900e-14	
902	4.387075e-02	5.000000e+00	2.486900e-14	
903	4.392075e-02	5.000000e+00	2.486900e-14	
904	4.397075e-02	5.000000e+00	2.486900e-14	
905	4.402075e-02	5.000000e+00	2.486900e-14	
906	4.407075e-02	5.000000e+00	2.486900e-14	
907	4.412075e-02	5.000000e+00	2.486900e-14	
908	4.417075e-02	5.000000e+00	2.486900e-14	
909	4.422075e-02	5.000000e+00	2.486900e-14	
910	4.427075e-02	5.000000e+00	2.486900e-14	
911	4.432075e-02	5.000000e+00	2.486900e-14	
912	4.437075e-02	5.000000e+00	2.486900e-14	
913	4.442075e-02	5.000000e+00	2.486900e-14	
914	4.447075e-02	5.000000e+00	2.486900e-14	
915	4.452075e-02	5.000000e+00	2.486900e-14	
916	4.457075e-02	5.000000e+00	2.486900e-14	
917	4.462075e-02	5.000000e+00	2.486900e-14	
918	4.467075e-02	5.000000e+00	2.486900e-14	
919	4.472075e-02	5.000000e+00	2.486900e-14	
920	4.477075e-02	5.000000e+00	2.486900e-14	
921	4.482075e-02	5.000000e+00	2.486900e-14	
922	4.487075e-02	5.000000e+00	2.486900e-14	
923	4.492075e-02	5.000000e+00	2.486900e-14	
924	4.497075e-02	5.000000e+00	2.486900e-14	

Index   time            v(2)            div             
--------------------------------------------------------------------------------
925	4.502075e-02	5.000000e+00	2.486900e-14	
926	4.507075e-02	5.000000e+00	2.486900e-14	
927	4.512075e-02	5.000000e+00	2.486900e-14	
928	4.517075e-02	5.000000e+00	2.486900e-14	
929	4.522075e-02	5.000000e+00	2.486900e-14	
930	4.527075e-02	5.000000e+00	2.486900e-14	
931	4.532075e-02	5.000000e+00	2.486900e-14	
932	4.537075e-02	5.000000e+00	2.486900e-14	
933	4.542075e-02	5.000000e+00	2.486900e-14	
934	4.547075e-02	5.000000e+00	2.486900e-14	
935	4.552075e-02	5.000000e+00	2.486900e-14	
936	4.557075e-02	5.000000e+00	2.486900e-14	
937	4.562075e-02	5.000000e+00	2.486900e-14	
938	4.567075e-02	5.000000e+00	2.486900e-14	
939	4.572075e-02	5.000000e+00	2.486900e-14	
940	4.577075e-02	5.000000e+00	2.486900e-14	
941	4.582075e-02	5.000000e+00	2.486900e-14	
942	4.587075e-02	5.000000e+00	2.486900e-14	
943	4.592075e-02	5.000000e+00	2.486900e-14	
944	4.597075e-02	5.000000e+00	2.486900e-14	
945	4.602075e-02	5.000000e+00	2.486900e-14	
946	4.607075e-02	5.000000e+00	2.486900e-14	
947	4.612075e-02	5.000000e+00	2.486900e-14	
948	4.617075e-02	5.000000e+00	2.486900e-14	
949	4.622075e-02	5.000000e+00	2.486900e-14	
950	4.627075e-02	5.000000e+00	2.486900e-14	
951	4.632075e-02	5.000000e+00	2.486900e-14	
952	4.637075e-02	5.000000e+00	2.486900e-14	
953	4.642075e-02	5.000000e+00	2.486900e-14	
954	4.647075e-02	5.000000e+00	2.486900e-14	
955	4.652075e-02	5.000000e+00	2.486900e-14	
956	4.657075e-02	5.000000e+00	2.486900e-14	
957	4.662075e-02	5.000000e+00	2.486900e-14	
958	4.667075e-02	5.000000e+00	2.486900e-14	
959	4.672075e-02	5.000000e+00	2.486900e-14	
960	4.677075e-02	5.000000e+00	2.486900e-14	
961	4.682075e-02	5.000000e+00	2.486900e-14	
962	4.687075e-02	5.000000e+00	2.486900e-14	
963	4.692075e-02	5.000000e+00	2.486900e-14	
964	4.697075e-02	5.000000e+00	2.486900e-14	
965	4.702075e-02	5.000000e+00	2.486900e-14	
966	4.707075e-02	5.000000e+00	2.486900e-14	
967	4.712075e-02	5.000000e+00	2.486900e-14	
968	4.717075e-02	5.000000e+00	2.486900e-14	
969	4.722075e-02	5.000000e+00	2.486900e-14	
970	4.727075e-02	5.000000e+00	2.486900e-14	
971	4.732075e-02	5.000000e+00	2.486900e-14	
972	4.737075e-02	5.000000e+00	2.486900e-14	
973	4.742075e-02	5.000000e+00	2.486900e-14	
974	4.747075e-02	5.000000e+00	2.486900e-14	
975	4.752075e-02	5.000000e+00	2.486900e-14	
976	4.757075e-02	5.000000e+00	2.486900e-14	
977	4.762075e-02	5.000000e+00	2.486900e-14	
978	4.767075e-02	5.000000e+00	2.486900e-14	
979	4.772075e-02	5.000000e+00	2.486900e-14	
980	4.777075e-02	5.000000e+00	2.486900e-14	
981	4.782075e-02	5.000000e+00	2.486900e-14	
982	4.787075e-02	5.000000e+00	2.486900e-14	

Index   time            v(2)            div             
--------------------------------------------------------------------------------
983	4.792075e-02	5.000000e+00	2.486900e-14	
984	4.797075e-02	5.000000e+00	2.486900e-14	
985	4.802075e-02	5.000000e+00	2.486900e-14	
986	4.807075e-02	5.000000e+00	2.486900e-14	
987	4.812075e-02	5.000000e+00	2.486900e-14	
988	4.817075e-02	5.000000e+00	2.486900e-14	
989	4.822075e-02	5.000000e+00	2.486900e-14	
990	4.827075e-02	5.000000e+00	2.486900e-14	
991	4.832075e-02	5.000000e+00	2.486900e-14	
992	4.837075e-02	5.000000e+00	2.486900e-14	
993	4.842075e-02	5.000000e+00	2.486900e-14	
994	4.847075e-02	5.000000e+00	2.486900e-14	
995	4.852075e-02	5.000000e+00	2.486900e-14	
996	4.857075e-02	5.000000e+00	2.486900e-14	
997	4.862075e-02	5.000000e+00	2.486900e-14	
998	4.867075e-02	5.000000e+00	2.486900e-14	
999	4.872075e-02	5.000000e+00	2.486900e-14	
1000	4.877075e-02	5.000000e+00	2.486900e-14	
1001	4.882075e-02	5.000000e+00	2.486900e-14	
1002	4.887075e-02	5.000000e+00	2.486900e-14	
1003	4.892075e-02	5.000000e+00	2.486900e-14	
1004	4.897075e-02	5.000000e+00	2.486900e-14	
1005	4.902075e-02	5.000000e+00	2.486900e-14	
1006	4.907075e-02	5.000000e+00	2.486900e-14	
1007	4.912075e-02	5.000000e+00	2.486900e-14	
1008	4.917075e-02	5.000000e+00	2.486900e-14	
1009	4.922075e-02	5.000000e+00	2.486900e-14	
1010	4.927075e-02	5.000000e+00	2.486900e-14	
1011	4.932075e-02	5.000000e+00	2.486900e-14	
1012	4.937075e-02	5.000000e+00	2.486900e-14	
1013	4.942075e-02	5.000000e+00	2.486900e-14	
1014	4.947075e-02	5.000000e+00	2.486900e-14	
1015	4.952075e-02	5.000000e+00	2.486900e-14	
1016	4.957075e-02	5.000000e+00	2.486900e-14	
1017	4.962075e-02	5.000000e+00	2.486900e-14	
1018	4.967075e-02	5.000000e+00	2.486900e-14	
1019	4.972075e-02	5.000000e+00	2.486900e-14	
1020	4.977075e-02	5.000000e+00	2.486900e-14	
1021	4.982075e-02	5.000000e+00	2.486900e-14	
1022	4.987075e-02	5.000000e+00	2.486900e-14	
1023	4.992075e-02	5.000000e+00	2.486900e-14	
1024	4.996037e-02	5.000000e+00	2.375877e-14	
1025	5.000000e-02	5.000000e+00	2.253753e-14	
                                   rc circuit
                                   Transient Analysis  Mon Jun 15 23:15:27  2026
--------------------------------------------------------------------------------
Index   time            i(vin)          
--------------------------------------------------------------------------------
0	0.000000e+00	0.000000e+00	
1	1.000000e-08	0.000000e+00	
2	2.000000e-08	0.000000e+00	
3	4.000000e-08	0.000000e+00	
4	8.000000e-08	0.000000e+00	
5	1.600000e-07	0.000000e+00	
6	3.200000e-07	0.000000e+00	
7	6.400000e-07	0.000000e+00	
8	1.000000e-06	0.000000e+00	
9	1.005955e-06	-2.97726e-08	
10	1.017864e-06	-8.93174e-08	
11	1.041682e-06	-2.08405e-07	
12	1.083683e-06	-4.18397e-07	
13	1.167685e-06	-8.38354e-07	
14	1.335689e-06	-1.67816e-06	
15	1.671697e-06	-3.35736e-06	
16	2.000000e-06	-4.99750e-06	
17	2.067202e-06	-4.99716e-06	
18	2.201605e-06	-4.99649e-06	
19	2.470411e-06	-4.99515e-06	
20	3.008024e-06	-4.99247e-06	
21	4.083250e-06	-4.98710e-06	
22	6.233701e-06	-4.97639e-06	
23	1.053460e-05	-4.95503e-06	
24	1.913641e-05	-4.91259e-06	
25	3.634002e-05	-4.82880e-06	
26	7.074724e-05	-4.66546e-06	
27	1.207472e-04	-4.43788e-06	
28	1.707472e-04	-4.22140e-06	
29	2.207472e-04	-4.01547e-06	
30	2.707472e-04	-3.81960e-06	
31	3.207472e-04	-3.63328e-06	
32	3.707472e-04	-3.45604e-06	
33	4.207472e-04	-3.28746e-06	
34	4.707472e-04	-3.12709e-06	
35	5.207472e-04	-2.97455e-06	
36	5.707472e-04	-2.82945e-06	
37	6.207472e-04	-2.69143e-06	
38	6.707472e-04	-2.56014e-06	
39	7.207472e-04	-2.43525e-06	
40	7.707472e-04	-2.31646e-06	
41	8.207472e-04	-2.20346e-06	
42	8.707472e-04	-2.09598e-06	
43	9.207472e-04	-1.99373e-06	
44	9.707472e-04	-1.89648e-06	
45	1.020747e-03	-1.80397e-06	
46	1.070747e-03	-1.71597e-06	
47	1.120747e-03	-1.63226e-06	
48	1.170747e-03	-1.55264e-06	
49	1.220747e-03	-1.47690e-06	
50	1.270747e-03	-1.40486e-06	
51	1.320747e-03	-1.33633e-06	
52	1.370747e-03	-1.27114e-06	
53	1.420747e-03	-1.20914e-06	
54	1.470747e-03	-1.15015e-06	

Index   time            i(vin)          
--------------------------------------------------------------------------------
55	1.520747e-03	-1.09405e-06	
56	1.570747e-03	-1.04068e-06	
57	1.620747e-03	-9.89915e-07	
58	1.670747e-03	-9.41626e-07	
59	1.720747e-03	-8.95693e-07	
60	1.770747e-03	-8.52001e-07	
61	1.820747e-03	-8.10440e-07	
62	1.870747e-03	-7.70906e-07	
63	1.920747e-03	-7.33301e-07	
64	1.970747e-03	-6.97530e-07	
65	2.020747e-03	-6.63505e-07	
66	2.070747e-03	-6.31138e-07	
67	2.120747e-03	-6.00351e-07	
68	2.170747e-03	-5.71066e-07	
69	2.220747e-03	-5.43209e-07	
70	2.270747e-03	-5.16711e-07	
71	2.320747e-03	-4.91506e-07	
72	2.370747e-03	-4.67530e-07	
73	2.420747e-03	-4.44723e-07	
74	2.470747e-03	-4.23030e-07	
75	2.520747e-03	-4.02394e-07	
76	2.570747e-03	-3.82765e-07	
77	2.620747e-03	-3.64093e-07	
78	2.670747e-03	-3.46333e-07	
79	2.720747e-03	-3.29439e-07	
80	2.770747e-03	-3.13368e-07	
81	2.820747e-03	-2.98082e-07	
82	2.870747e-03	-2.83542e-07	
83	2.920747e-03	-2.69710e-07	
84	2.970747e-03	-2.56554e-07	
85	3.020747e-03	-2.44039e-07	
86	3.070747e-03	-2.32134e-07	
87	3.120747e-03	-2.20811e-07	
88	3.170747e-03	-2.10040e-07	
89	3.220747e-03	-1.99794e-07	
90	3.270747e-03	-1.90048e-07	
91	3.320747e-03	-1.80777e-07	
92	3.370747e-03	-1.71959e-07	
93	3.420747e-03	-1.63570e-07	
94	3.470747e-03	-1.55591e-07	
95	3.520747e-03	-1.48002e-07	
96	3.570747e-03	-1.40782e-07	
97	3.620747e-03	-1.33915e-07	
98	3.670747e-03	-1.27382e-07	
99	3.720747e-03	-1.21168e-07	
100	3.770747e-03	-1.15258e-07	
101	3.820747e-03	-1.09635e-07	
102	3.870747e-03	-1.04287e-07	
103	3.920747e-03	-9.92002e-08	
104	3.970747e-03	-9.43611e-08	
105	4.020747e-03	-8.97582e-08	
106	4.070747e-03	-8.53797e-08	
107	4.120747e-03	-8.12148e-08	
108	4.170747e-03	-7.72531e-08	
109	4.220747e-03	-7.34847e-08	
110	4.270747e-03	-6.99001e-08	
111	4.320747e-03	-6.64903e-08	
112	4.370747e-03	-6.32469e-08	

Index   time            i(vin)          
--------------------------------------------------------------------------------
113	4.420747e-03	-6.01617e-08	
114	4.470747e-03	-5.72270e-08	
115	4.520747e-03	-5.44354e-08	
116	4.570747e-03	-5.17800e-08	
117	4.620747e-03	-4.92542e-08	
118	4.670747e-03	-4.68515e-08	
119	4.720747e-03	-4.45661e-08	
120	4.770747e-03	-4.23921e-08	
121	4.820747e-03	-4.03242e-08	
122	4.870747e-03	-3.83572e-08	
123	4.920747e-03	-3.64861e-08	
124	4.970747e-03	-3.47063e-08	
125	5.020747e-03	-3.30133e-08	
126	5.070747e-03	-3.14029e-08	
127	5.120747e-03	-2.98710e-08	
128	5.170747e-03	-2.84139e-08	
129	5.220747e-03	-2.70279e-08	
130	5.270747e-03	-2.57094e-08	
131	5.320747e-03	-2.44553e-08	
132	5.370747e-03	-2.32624e-08	
133	5.420747e-03	-2.21276e-08	
134	5.470747e-03	-2.10482e-08	
135	5.520747e-03	-2.00215e-08	
136	5.570747e-03	-1.90448e-08	
137	5.620747e-03	-1.81158e-08	
138	5.670747e-03	-1.72321e-08	
139	5.720747e-03	-1.63915e-08	
140	5.770747e-03	-1.55919e-08	
141	5.820747e-03	-1.48314e-08	
142	5.870747e-03	-1.41079e-08	
143	5.920747e-03	-1.34197e-08	
144	5.970747e-03	-1.27651e-08	
145	6.020747e-03	-1.21424e-08	
146	6.070747e-03	-1.15501e-08	
147	6.120747e-03	-1.09867e-08	
148	6.170747e-03	-1.04507e-08	
149	6.220747e-03	-9.94093e-09	
150	6.270747e-03	-9.45600e-09	
151	6.320747e-03	-8.99474e-09	
152	6.370747e-03	-8.55597e-09	
153	6.420747e-03	-8.13860e-09	
154	6.470747e-03	-7.74160e-09	
155	6.520747e-03	-7.36396e-09	
156	6.570747e-03	-7.00474e-09	
157	6.620747e-03	-6.66305e-09	
158	6.670747e-03	-6.33802e-09	
159	6.720747e-03	-6.02885e-09	
160	6.770747e-03	-5.73476e-09	
161	6.820747e-03	-5.45501e-09	
162	6.870747e-03	-5.18892e-09	
163	6.920747e-03	-4.93580e-09	
164	6.970747e-03	-4.69503e-09	
165	7.020747e-03	-4.46600e-09	
166	7.070747e-03	-4.24815e-09	
167	7.120747e-03	-4.04092e-09	
168	7.170747e-03	-3.84380e-09	
169	7.220747e-03	-3.65630e-09	
170	7.270747e-03	-3.47794e-09	

Index   time            i(vin)          
--------------------------------------------------------------------------------
171	7.320747e-03	-3.30829e-09	
172	7.370747e-03	-3.14691e-09	
173	7.420747e-03	-2.99340e-09	
174	7.470747e-03	-2.84738e-09	
175	7.520747e-03	-2.70849e-09	
176	7.570747e-03	-2.57636e-09	
177	7.620747e-03	-2.45069e-09	
178	7.670747e-03	-2.33114e-09	
179	7.720747e-03	-2.21743e-09	
180	7.770747e-03	-2.10926e-09	
181	7.820747e-03	-2.00637e-09	
182	7.870747e-03	-1.90850e-09	
183	7.920747e-03	-1.81540e-09	
184	7.970747e-03	-1.72684e-09	
185	8.020747e-03	-1.64261e-09	
186	8.070747e-03	-1.56248e-09	
187	8.120747e-03	-1.48626e-09	
188	8.170747e-03	-1.41376e-09	
189	8.220747e-03	-1.34480e-09	
190	8.270747e-03	-1.27920e-09	
191	8.320747e-03	-1.21680e-09	
192	8.370747e-03	-1.15744e-09	
193	8.420747e-03	-1.10098e-09	
194	8.470747e-03	-1.04727e-09	
195	8.520747e-03	-9.96188e-10	
196	8.570747e-03	-9.47594e-10	
197	8.620747e-03	-9.01370e-10	
198	8.670747e-03	-8.57400e-10	
199	8.720747e-03	-8.15576e-10	
200	8.770747e-03	-7.75792e-10	
201	8.820747e-03	-7.37948e-10	
202	8.870747e-03	-7.01951e-10	
203	8.920747e-03	-6.67709e-10	
204	8.970747e-03	-6.35138e-10	
205	9.020747e-03	-6.04156e-10	
206	9.070747e-03	-5.74685e-10	
207	9.120747e-03	-5.46651e-10	
208	9.170747e-03	-5.19985e-10	
209	9.220747e-03	-4.94620e-10	
210	9.270747e-03	-4.70492e-10	
211	9.320747e-03	-4.47542e-10	
212	9.370747e-03	-4.25710e-10	
213	9.420747e-03	-4.04944e-10	
214	9.470747e-03	-3.85191e-10	
215	9.520747e-03	-3.66401e-10	
216	9.570747e-03	-3.48528e-10	
217	9.620747e-03	-3.31526e-10	
218	9.670747e-03	-3.15354e-10	
219	9.720747e-03	-2.99971e-10	
220	9.770747e-03	-2.85338e-10	
221	9.820747e-03	-2.71419e-10	
222	9.870747e-03	-2.58179e-10	
223	9.920747e-03	-2.45585e-10	
224	9.970747e-03	-2.33606e-10	
225	1.002075e-02	-2.22210e-10	
226	1.007075e-02	-2.11371e-10	
227	1.012075e-02	-2.01060e-10	
228	1.017075e-02	-1.91252e-10	

Index   time            i(vin)          
--------------------------------------------------------------------------------
229	1.022075e-02	-1.81923e-10	
230	1.027075e-02	-1.73048e-10	
231	1.032075e-02	-1.64607e-10	
232	1.037075e-02	-1.56577e-10	
233	1.042075e-02	-1.48940e-10	
234	1.047075e-02	-1.41674e-10	
235	1.052075e-02	-1.34763e-10	
236	1.057075e-02	-1.28189e-10	
237	1.062075e-02	-1.21936e-10	
238	1.067075e-02	-1.15988e-10	
239	1.072075e-02	-1.10330e-10	
240	1.077075e-02	-1.04948e-10	
241	1.082075e-02	-9.98288e-11	
242	1.087075e-02	-9.49591e-11	
243	1.092075e-02	-9.03270e-11	
244	1.097075e-02	-8.59208e-11	
245	1.102075e-02	-8.17295e-11	
246	1.107075e-02	-7.77427e-11	
247	1.112075e-02	-7.39504e-11	
248	1.117075e-02	-7.03431e-11	
249	1.122075e-02	-6.69117e-11	
250	1.127075e-02	-6.36477e-11	
251	1.132075e-02	-6.05429e-11	
252	1.137075e-02	-5.75896e-11	
253	1.142075e-02	-5.47804e-11	
254	1.147075e-02	-5.21082e-11	
255	1.152075e-02	-4.95663e-11	
256	1.157075e-02	-4.71484e-11	
257	1.162075e-02	-4.48485e-11	
258	1.167075e-02	-4.26608e-11	
259	1.172075e-02	-4.05798e-11	
260	1.177075e-02	-3.86003e-11	
261	1.182075e-02	-3.67173e-11	
262	1.187075e-02	-3.49262e-11	
263	1.192075e-02	-3.32225e-11	
264	1.197075e-02	-3.16019e-11	
265	1.202075e-02	-3.00603e-11	
266	1.207075e-02	-2.85940e-11	
267	1.212075e-02	-2.71992e-11	
268	1.217075e-02	-2.58724e-11	
269	1.222075e-02	-2.46103e-11	
270	1.227075e-02	-2.34098e-11	
271	1.232075e-02	-2.22679e-11	
272	1.237075e-02	-2.11816e-11	
273	1.242075e-02	-2.01484e-11	
274	1.247075e-02	-1.91655e-11	
275	1.252075e-02	-1.82306e-11	
276	1.257075e-02	-1.73413e-11	
277	1.262075e-02	-1.64954e-11	
278	1.267075e-02	-1.56908e-11	
279	1.272075e-02	-1.49253e-11	
280	1.277075e-02	-1.41973e-11	
281	1.282075e-02	-1.35047e-11	
282	1.287075e-02	-1.28460e-11	
283	1.292075e-02	-1.22193e-11	
284	1.297075e-02	-1.16233e-11	
285	1.302075e-02	-1.10563e-11	
286	1.307075e-02	-1.05169e-11	

Index   time            i(vin)          
--------------------------------------------------------------------------------
287	1.312075e-02	-1.00039e-11	
288	1.317075e-02	-9.51593e-12	
289	1.322075e-02	-9.05174e-12	
290	1.327075e-02	-8.61019e-12	
291	1.332075e-02	-8.19018e-12	
292	1.337075e-02	-7.79066e-12	
293	1.342075e-02	-7.41063e-12	
294	1.347075e-02	-7.04913e-12	
295	1.352075e-02	-6.70527e-12	
296	1.357075e-02	-6.37819e-12	
297	1.362075e-02	-6.06706e-12	
298	1.367075e-02	-5.77110e-12	
299	1.372075e-02	-5.48958e-12	
300	1.377075e-02	-5.22180e-12	
301	1.382075e-02	-4.96708e-12	
302	1.387075e-02	-4.72478e-12	
303	1.392075e-02	-4.49430e-12	
304	1.397075e-02	-4.27507e-12	
305	1.402075e-02	-4.06653e-12	
306	1.407075e-02	-3.86816e-12	
307	1.412075e-02	-3.67947e-12	
308	1.417075e-02	-3.49999e-12	
309	1.422075e-02	-3.32925e-12	
310	1.427075e-02	-3.16685e-12	
311	1.432075e-02	-3.01237e-12	
312	1.437075e-02	-2.86543e-12	
313	1.442075e-02	-2.72565e-12	
314	1.447075e-02	-2.59269e-12	
315	1.452075e-02	-2.46622e-12	
316	1.457075e-02	-2.34591e-12	
317	1.462075e-02	-2.23148e-12	
318	1.467075e-02	-2.12263e-12	
319	1.472075e-02	-2.01908e-12	
320	1.477075e-02	-1.92059e-12	
321	1.482075e-02	-1.82691e-12	
322	1.487075e-02	-1.73779e-12	
323	1.492075e-02	-1.65302e-12	
324	1.497075e-02	-1.57238e-12	
325	1.502075e-02	-1.49568e-12	
326	1.507075e-02	-1.42272e-12	
327	1.512075e-02	-1.35332e-12	
328	1.517075e-02	-1.28730e-12	
329	1.522075e-02	-1.22451e-12	
330	1.527075e-02	-1.16478e-12	
331	1.532075e-02	-1.10796e-12	
332	1.537075e-02	-1.05391e-12	
333	1.542075e-02	-1.00250e-12	
334	1.547075e-02	-9.53599e-13	
335	1.552075e-02	-9.07082e-13	
336	1.557075e-02	-8.62834e-13	
337	1.562075e-02	-8.20745e-13	
338	1.567075e-02	-7.80708e-13	
339	1.572075e-02	-7.42625e-13	
340	1.577075e-02	-7.06399e-13	
341	1.582075e-02	-6.71941e-13	
342	1.587075e-02	-6.39163e-13	
343	1.592075e-02	-6.07984e-13	
344	1.597075e-02	-5.78327e-13	

Index   time            i(vin)          
--------------------------------------------------------------------------------
345	1.602075e-02	-5.50116e-13	
346	1.607075e-02	-5.23281e-13	
347	1.612075e-02	-4.97755e-13	
348	1.617075e-02	-4.73474e-13	
349	1.622075e-02	-4.50378e-13	
350	1.627075e-02	-4.28408e-13	
351	1.632075e-02	-4.07510e-13	
352	1.637075e-02	-3.87632e-13	
353	1.642075e-02	-3.68723e-13	
354	1.647075e-02	-3.50736e-13	
355	1.652075e-02	-3.33627e-13	
356	1.657075e-02	-3.17353e-13	
357	1.662075e-02	-3.01872e-13	
358	1.667075e-02	-2.87147e-13	
359	1.672075e-02	-2.73140e-13	
360	1.677075e-02	-2.59816e-13	
361	1.682075e-02	-2.47142e-13	
362	1.687075e-02	-2.35086e-13	
363	1.692075e-02	-2.23618e-13	
364	1.697075e-02	-2.12710e-13	
365	1.702075e-02	-2.02334e-13	
366	1.707075e-02	-1.92464e-13	
367	1.712075e-02	-1.83076e-13	
368	1.717075e-02	-1.74145e-13	
369	1.722075e-02	-1.65650e-13	
370	1.727075e-02	-1.57570e-13	
371	1.732075e-02	-1.49883e-13	
372	1.737075e-02	-1.42572e-13	
373	1.742075e-02	-1.35617e-13	
374	1.747075e-02	-1.29002e-13	
375	1.752075e-02	-1.22709e-13	
376	1.757075e-02	-1.16723e-13	
377	1.762075e-02	-1.11029e-13	
378	1.767075e-02	-1.05613e-13	
379	1.772075e-02	-1.00461e-13	
380	1.777075e-02	-9.55609e-14	
381	1.782075e-02	-9.08994e-14	
382	1.787075e-02	-8.64653e-14	
383	1.792075e-02	-8.22474e-14	
384	1.797075e-02	-7.82354e-14	
385	1.802075e-02	-7.44190e-14	
386	1.807075e-02	-7.07888e-14	
387	1.812075e-02	-6.73357e-14	
388	1.817075e-02	-6.40511e-14	
389	1.822075e-02	-6.09266e-14	
390	1.827075e-02	-5.79546e-14	
391	1.832075e-02	-5.51275e-14	
392	1.837075e-02	-5.24384e-14	
393	1.842075e-02	-4.98804e-14	
394	1.847075e-02	-4.74472e-14	
395	1.852075e-02	-4.51327e-14	
396	1.857075e-02	-4.29311e-14	
397	1.862075e-02	-4.08369e-14	
398	1.867075e-02	-3.88449e-14	
399	1.872075e-02	-3.69500e-14	
400	1.877075e-02	-3.51476e-14	
401	1.882075e-02	-3.34331e-14	
402	1.887075e-02	-3.18022e-14	

Index   time            i(vin)          
--------------------------------------------------------------------------------
403	1.892075e-02	-3.02508e-14	
404	1.897075e-02	-2.87752e-14	
405	1.902075e-02	-2.73715e-14	
406	1.907075e-02	-2.60363e-14	
407	1.912075e-02	-2.47663e-14	
408	1.917075e-02	-2.35581e-14	
409	1.922075e-02	-2.24090e-14	
410	1.927075e-02	-2.13159e-14	
411	1.932075e-02	-2.02761e-14	
412	1.937075e-02	-1.92870e-14	
413	1.942075e-02	-1.83461e-14	
414	1.947075e-02	-1.74512e-14	
415	1.952075e-02	-1.65999e-14	
416	1.957075e-02	-1.57902e-14	
417	1.962075e-02	-1.50199e-14	
418	1.967075e-02	-1.42873e-14	
419	1.972075e-02	-1.35903e-14	
420	1.977075e-02	-1.29274e-14	
421	1.982075e-02	-1.22968e-14	
422	1.987075e-02	-1.16969e-14	
423	1.992075e-02	-1.11264e-14	
424	1.997075e-02	-1.05836e-14	
425	2.002075e-02	-1.00673e-14	
426	2.007075e-02	-9.57625e-15	
427	2.012075e-02	-9.10909e-15	
428	2.017075e-02	-8.66473e-15	
429	2.022075e-02	-8.24208e-15	
430	2.027075e-02	-7.84004e-15	
431	2.032075e-02	-7.45758e-15	
432	2.037075e-02	-7.09381e-15	
433	2.042075e-02	-6.74778e-15	
434	2.047075e-02	-6.41862e-15	
435	2.052075e-02	-6.10550e-15	
436	2.057075e-02	-5.80767e-15	
437	2.062075e-02	-5.52437e-15	
438	2.067075e-02	-5.25492e-15	
439	2.072075e-02	-4.99856e-15	
440	2.077075e-02	-4.75472e-15	
441	2.082075e-02	-4.52278e-15	
442	2.087075e-02	-4.30218e-15	
443	2.092075e-02	-4.09230e-15	
444	2.097075e-02	-3.89270e-15	
445	2.102075e-02	-3.70277e-15	
446	2.107075e-02	-3.52217e-15	
447	2.112075e-02	-3.35038e-15	
448	2.117075e-02	-3.18691e-15	
449	2.122075e-02	-3.03146e-15	
450	2.127075e-02	-2.88361e-15	
451	2.132075e-02	-2.74293e-15	
452	2.137075e-02	-2.60914e-15	
453	2.142075e-02	-2.48185e-15	
454	2.147075e-02	-2.36078e-15	
455	2.152075e-02	-2.24563e-15	
456	2.157075e-02	-2.13607e-15	
457	2.162075e-02	-2.03188e-15	
458	2.167075e-02	-1.93279e-15	
459	2.172075e-02	-1.83849e-15	
460	2.177075e-02	-1.74882e-15	

Index   time            i(vin)          
--------------------------------------------------------------------------------
461	2.182075e-02	-1.66350e-15	
462	2.187075e-02	-1.58235e-15	
463	2.192075e-02	-1.50515e-15	
464	2.197075e-02	-1.43172e-15	
465	2.202075e-02	-1.36187e-15	
466	2.207075e-02	-1.29547e-15	
467	2.212075e-02	-1.23228e-15	
468	2.217075e-02	-1.17216e-15	
469	2.222075e-02	-1.11497e-15	
470	2.227075e-02	-1.06060e-15	
471	2.232075e-02	-1.00886e-15	
472	2.237075e-02	-9.59634e-16	
473	2.242075e-02	-9.12824e-16	
474	2.247075e-02	-8.68317e-16	
475	2.252075e-02	-8.25952e-16	
476	2.257075e-02	-7.85647e-16	
477	2.262075e-02	-7.47347e-16	
478	2.267075e-02	-7.10891e-16	
479	2.272075e-02	-6.76224e-16	
480	2.277075e-02	-6.43210e-16	
481	2.282075e-02	-6.11849e-16	
482	2.287075e-02	-5.81979e-16	
483	2.292075e-02	-5.53600e-16	
484	2.297075e-02	-5.26577e-16	
485	2.302075e-02	-5.00908e-16	
486	2.307075e-02	-4.76487e-16	
487	2.312075e-02	-4.53230e-16	
488	2.317075e-02	-4.31113e-16	
489	2.322075e-02	-4.10106e-16	
490	2.327075e-02	-3.90076e-16	
491	2.332075e-02	-3.71075e-16	
492	2.337075e-02	-3.52969e-16	
493	2.342075e-02	-3.35757e-16	
494	2.347075e-02	-3.19359e-16	
495	2.352075e-02	-3.03773e-16	
496	2.357075e-02	-2.88974e-16	
497	2.362075e-02	-2.74879e-16	
498	2.367075e-02	-2.61462e-16	
499	2.372075e-02	-2.48723e-16	
500	2.377075e-02	-2.36607e-16	
501	2.382075e-02	-2.25033e-16	
502	2.387075e-02	-2.14082e-16	
503	2.392075e-02	-2.03620e-16	
504	2.397075e-02	-1.93699e-16	
505	2.402075e-02	-1.84240e-16	
506	2.407075e-02	-1.75241e-16	
507	2.412075e-02	-1.66730e-16	
508	2.417075e-02	-1.58544e-16	
509	2.422075e-02	-1.50819e-16	
510	2.427075e-02	-1.43474e-16	
511	2.432075e-02	-1.36481e-16	
512	2.437075e-02	-1.29813e-16	
513	2.442075e-02	-1.23470e-16	
514	2.447075e-02	-1.17480e-16	
515	2.452075e-02	-1.11734e-16	
516	2.457075e-02	-1.06313e-16	
517	2.462075e-02	-1.01082e-16	
518	2.467075e-02	-9.61755e-17	

Index   time            i(vin)          
--------------------------------------------------------------------------------
519	2.472075e-02	-9.14863e-17	
520	2.477075e-02	-8.70140e-17	
521	2.482075e-02	-8.27585e-17	
522	2.487075e-02	-7.87470e-17	
523	2.492075e-02	-7.48980e-17	
524	2.497075e-02	-7.12660e-17	
525	2.502075e-02	-6.77694e-17	
526	2.507075e-02	-6.44626e-17	
527	2.512075e-02	-6.13184e-17	
528	2.517075e-02	-5.83369e-17	
529	2.522075e-02	-5.54637e-17	
530	2.527075e-02	-5.27803e-17	
531	2.532075e-02	-5.01782e-17	
532	2.537075e-02	-4.77659e-17	
533	2.542075e-02	-4.54348e-17	
534	2.547075e-02	-4.32122e-17	
535	2.552075e-02	-4.10980e-17	
536	2.557075e-02	-3.90923e-17	
537	2.562075e-02	-3.71949e-17	
538	2.567075e-02	-3.53518e-17	
539	2.572075e-02	-3.36441e-17	
540	2.577075e-02	-3.20178e-17	
541	2.582075e-02	-3.04458e-17	
542	2.587075e-02	-2.89550e-17	
543	2.592075e-02	-2.75455e-17	
544	2.597075e-02	-2.62174e-17	
545	2.602075e-02	-2.49163e-17	
546	2.607075e-02	-2.36966e-17	
547	2.612075e-02	-2.25582e-17	
548	2.617075e-02	-2.14740e-17	
549	2.622075e-02	-2.04169e-17	
550	2.627075e-02	-1.94140e-17	
551	2.632075e-02	-1.84382e-17	
552	2.637075e-02	-1.75709e-17	
553	2.642075e-02	-1.67035e-17	
554	2.647075e-02	-1.59174e-17	
555	2.652075e-02	-1.51314e-17	
556	2.657075e-02	-1.43725e-17	
557	2.662075e-02	-1.36948e-17	
558	2.667075e-02	-1.29901e-17	
559	2.672075e-02	-1.23938e-17	
560	2.677075e-02	-1.17975e-17	
561	2.682075e-02	-1.11741e-17	
562	2.687075e-02	-1.06320e-17	
563	2.692075e-02	-1.01441e-17	
564	2.697075e-02	-9.62907e-18	
565	2.702075e-02	-9.16828e-18	
566	2.707075e-02	-8.70750e-18	
567	2.712075e-02	-8.30092e-18	
568	2.717075e-02	-7.89435e-18	
569	2.722075e-02	-7.51488e-18	
570	2.727075e-02	-7.13541e-18	
571	2.732075e-02	-6.78304e-18	
572	2.737075e-02	-6.45778e-18	
573	2.742075e-02	-6.13252e-18	
574	2.747075e-02	-5.86147e-18	
575	2.752075e-02	-5.56331e-18	
576	2.757075e-02	-5.29226e-18	

Index   time            i(vin)          
--------------------------------------------------------------------------------
577	2.762075e-02	-5.02121e-18	
578	2.767075e-02	-4.77727e-18	
579	2.772075e-02	-4.53332e-18	
580	2.777075e-02	-4.34358e-18	
581	2.782075e-02	-4.12674e-18	
582	2.787075e-02	-3.93701e-18	
583	2.792075e-02	-3.72017e-18	
584	2.797075e-02	-3.55754e-18	
585	2.802075e-02	-3.36780e-18	
586	2.807075e-02	-3.20517e-18	
587	2.812075e-02	-3.06965e-18	
588	2.817075e-02	-2.90702e-18	
589	2.822075e-02	-2.77149e-18	
590	2.827075e-02	-2.63597e-18	
591	2.832075e-02	-2.50044e-18	
592	2.837075e-02	-2.39202e-18	
593	2.842075e-02	-2.25650e-18	
594	2.847075e-02	-2.14808e-18	
595	2.852075e-02	-2.06676e-18	
596	2.857075e-02	-1.95834e-18	
597	2.862075e-02	-1.84992e-18	
598	2.867075e-02	-1.76860e-18	
599	2.872075e-02	-1.66018e-18	
600	2.877075e-02	-1.60597e-18	
601	2.882075e-02	-1.52466e-18	
602	2.887075e-02	-1.47045e-18	
603	2.892075e-02	-1.38913e-18	
604	2.897075e-02	-1.30782e-18	
605	2.902075e-02	-1.25361e-18	
606	2.907075e-02	-1.17229e-18	
607	2.912075e-02	-1.11808e-18	
608	2.917075e-02	-1.06387e-18	
609	2.922075e-02	-1.03677e-18	
610	2.927075e-02	-9.55453e-19	
611	2.932075e-02	-9.01243e-19	
612	2.937075e-02	-8.74138e-19	
613	2.942075e-02	-8.47033e-19	
614	2.947075e-02	-7.92823e-19	
615	2.952075e-02	-7.65718e-19	
616	2.957075e-02	-7.11508e-19	
617	2.962075e-02	-6.84403e-19	
618	2.967075e-02	-6.57298e-19	
619	2.972075e-02	-6.03087e-19	
620	2.977075e-02	-5.75982e-19	
621	2.982075e-02	-5.75982e-19	
622	2.987075e-02	-5.21772e-19	
623	2.992075e-02	-5.21772e-19	
624	2.997075e-02	-4.67562e-19	
625	3.002075e-02	-4.40457e-19	
626	3.007075e-02	-4.67562e-19	
627	3.012075e-02	-4.13352e-19	
628	3.017075e-02	-3.86247e-19	
629	3.022075e-02	-3.86247e-19	
630	3.027075e-02	-3.32037e-19	
631	3.032075e-02	-3.32037e-19	
632	3.037075e-02	-3.32037e-19	
633	3.042075e-02	-3.04932e-19	
634	3.047075e-02	-3.04932e-19	

Index   time            i(vin)          
--------------------------------------------------------------------------------
635	3.052075e-02	-2.77827e-19	
636	3.057075e-02	-2.77827e-19	
637	3.062075e-02	-2.77827e-19	
638	3.067075e-02	-2.50722e-19	
639	3.072075e-02	-2.23617e-19	
640	3.077075e-02	-2.23617e-19	
641	3.082075e-02	-1.96512e-19	
642	3.087075e-02	-1.96512e-19	
643	3.092075e-02	-1.96512e-19	
644	3.097075e-02	-1.69407e-19	
645	3.102075e-02	-1.69407e-19	
646	3.107075e-02	-1.69407e-19	
647	3.112075e-02	-1.69407e-19	
648	3.117075e-02	-1.42302e-19	
649	3.122075e-02	-1.42302e-19	
650	3.127075e-02	-1.15196e-19	
651	3.132075e-02	-1.15196e-19	
652	3.137075e-02	-1.15196e-19	
653	3.142075e-02	-1.15196e-19	
654	3.147075e-02	-8.80914e-20	
655	3.152075e-02	-1.15196e-19	
656	3.157075e-02	-1.15196e-19	
657	3.162075e-02	-8.80914e-20	
658	3.167075e-02	-8.80914e-20	
659	3.172075e-02	-8.80914e-20	
660	3.177075e-02	-8.80914e-20	
661	3.182075e-02	-6.09864e-20	
662	3.187075e-02	-8.80914e-20	
663	3.192075e-02	-8.80914e-20	
664	3.197075e-02	-8.80914e-20	
665	3.202075e-02	-6.09864e-20	
666	3.207075e-02	-6.09864e-20	
667	3.212075e-02	-3.38813e-20	
668	3.217075e-02	-6.09864e-20	
669	3.222075e-02	-6.09864e-20	
670	3.227075e-02	-3.38813e-20	
671	3.232075e-02	-6.09864e-20	
672	3.237075e-02	-6.09864e-20	
673	3.242075e-02	-6.09864e-20	
674	3.247075e-02	-6.09864e-20	
675	3.252075e-02	-3.38813e-20	
676	3.257075e-02	-6.09864e-20	
677	3.262075e-02	-3.38813e-20	
678	3.267075e-02	-3.38813e-20	
679	3.272075e-02	-3.38813e-20	
680	3.277075e-02	-3.38813e-20	
681	3.282075e-02	-3.38813e-20	
682	3.287075e-02	-6.77626e-21	
683	3.292075e-02	-6.77626e-21	
684	3.297075e-02	-6.77626e-21	
685	3.302075e-02	-6.77626e-21	
686	3.307075e-02	-6.77626e-21	
687	3.312075e-02	-6.77626e-21	
688	3.317075e-02	-6.77626e-21	
689	3.322075e-02	-6.77626e-21	
690	3.327075e-02	-6.77626e-21	
691	3.332075e-02	-6.77626e-21	
692	3.337075e-02	-6.77626e-21	

Index   time            i(vin)          
--------------------------------------------------------------------------------
693	3.342075e-02	-6.77626e-21	
694	3.347075e-02	-6.77626e-21	
695	3.352075e-02	-6.77626e-21	
696	3.357075e-02	-6.77626e-21	
697	3.362075e-02	-6.77626e-21	
698	3.367075e-02	-6.77626e-21	
699	3.372075e-02	-6.77626e-21	
700	3.377075e-02	-6.77626e-21	
701	3.382075e-02	-6.77626e-21	
702	3.387075e-02	-6.77626e-21	
703	3.392075e-02	-6.77626e-21	
704	3.397075e-02	-6.77626e-21	
705	3.402075e-02	-6.77626e-21	
706	3.407075e-02	-6.77626e-21	
707	3.412075e-02	-6.77626e-21	
708	3.417075e-02	-6.77626e-21	
709	3.422075e-02	-6.77626e-21	
710	3.427075e-02	-6.77626e-21	
711	3.432075e-02	-6.77626e-21	
712	3.437075e-02	-6.77626e-21	
713	3.442075e-02	-6.77626e-21	
714	3.447075e-02	-6.77626e-21	
715	3.452075e-02	-6.77626e-21	
716	3.457075e-02	-6.77626e-21	
717	3.462075e-02	-6.77626e-21	
718	3.467075e-02	-6.77626e-21	
719	3.472075e-02	-6.77626e-21	
720	3.477075e-02	-6.77626e-21	
721	3.482075e-02	-6.77626e-21	
722	3.487075e-02	-6.77626e-21	
723	3.492075e-02	-6.77626e-21	
724	3.497075e-02	-6.77626e-21	
725	3.502075e-02	-6.77626e-21	
726	3.507075e-02	-6.77626e-21	
727	3.512075e-02	-6.77626e-21	
728	3.517075e-02	-6.77626e-21	
729	3.522075e-02	-6.77626e-21	
730	3.527075e-02	-6.77626e-21	
731	3.532075e-02	-6.77626e-21	
732	3.537075e-02	-6.77626e-21	
733	3.542075e-02	-6.77626e-21	
734	3.547075e-02	-6.77626e-21	
735	3.552075e-02	-6.77626e-21	
736	3.557075e-02	-6.77626e-21	
737	3.562075e-02	-6.77626e-21	
738	3.567075e-02	-6.77626e-21	
739	3.572075e-02	-6.77626e-21	
740	3.577075e-02	-6.77626e-21	
741	3.582075e-02	-6.77626e-21	
742	3.587075e-02	-6.77626e-21	
743	3.592075e-02	-6.77626e-21	
744	3.597075e-02	-6.77626e-21	
745	3.602075e-02	-6.77626e-21	
746	3.607075e-02	-6.77626e-21	
747	3.612075e-02	-6.77626e-21	
748	3.617075e-02	-6.77626e-21	
749	3.622075e-02	-6.77626e-21	
750	3.627075e-02	-6.77626e-21	

Index   time            i(vin)          
--------------------------------------------------------------------------------
751	3.632075e-02	-6.77626e-21	
752	3.637075e-02	-6.77626e-21	
753	3.642075e-02	-6.77626e-21	
754	3.647075e-02	-6.77626e-21	
755	3.652075e-02	-6.77626e-21	
756	3.657075e-02	-6.77626e-21	
757	3.662075e-02	-6.77626e-21	
758	3.667075e-02	-6.77626e-21	
759	3.672075e-02	-6.77626e-21	
760	3.677075e-02	-6.77626e-21	
761	3.682075e-02	-6.77626e-21	
762	3.687075e-02	-6.77626e-21	
763	3.692075e-02	-6.77626e-21	
764	3.697075e-02	-6.77626e-21	
765	3.702075e-02	-6.77626e-21	
766	3.707075e-02	-6.77626e-21	
767	3.712075e-02	-6.77626e-21	
768	3.717075e-02	-6.77626e-21	
769	3.722075e-02	-6.77626e-21	
770	3.727075e-02	-6.77626e-21	
771	3.732075e-02	-6.77626e-21	
772	3.737075e-02	-6.77626e-21	
773	3.742075e-02	-6.77626e-21	
774	3.747075e-02	-6.77626e-21	
775	3.752075e-02	-6.77626e-21	
776	3.757075e-02	-6.77626e-21	
777	3.762075e-02	-6.77626e-21	
778	3.767075e-02	-6.77626e-21	
779	3.772075e-02	-6.77626e-21	
780	3.777075e-02	-6.77626e-21	
781	3.782075e-02	-6.77626e-21	
782	3.787075e-02	-6.77626e-21	
783	3.792075e-02	-6.77626e-21	
784	3.797075e-02	-6.77626e-21	
785	3.802075e-02	-6.77626e-21	
786	3.807075e-02	-6.77626e-21	
787	3.812075e-02	-6.77626e-21	
788	3.817075e-02	-6.77626e-21	
789	3.822075e-02	-6.77626e-21	
790	3.827075e-02	-6.77626e-21	
791	3.832075e-02	-6.77626e-21	
792	3.837075e-02	-6.77626e-21	
793	3.842075e-02	-6.77626e-21	
794	3.847075e-02	-6.77626e-21	
795	3.852075e-02	-6.77626e-21	
796	3.857075e-02	-6.77626e-21	
797	3.862075e-02	-6.77626e-21	
798	3.867075e-02	-6.77626e-21	
799	3.872075e-02	-6.77626e-21	
800	3.877075e-02	-6.77626e-21	
801	3.882075e-02	-6.77626e-21	
802	3.887075e-02	-6.77626e-21	
803	3.892075e-02	-6.77626e-21	
804	3.897075e-02	-6.77626e-21	
805	3.902075e-02	-6.77626e-21	
806	3.907075e-02	-6.77626e-21	
807	3.912075e-02	-6.77626e-21	
808	3.917075e-02	-6.77626e-21	

Index   time            i(vin)          
--------------------------------------------------------------------------------
809	3.922075e-02	-6.77626e-21	
810	3.927075e-02	-6.77626e-21	
811	3.932075e-02	-6.77626e-21	
812	3.937075e-02	-6.77626e-21	
813	3.942075e-02	-6.77626e-21	
814	3.947075e-02	-6.77626e-21	
815	3.952075e-02	-6.77626e-21	
816	3.957075e-02	-6.77626e-21	
817	3.962075e-02	-6.77626e-21	
818	3.967075e-02	-6.77626e-21	
819	3.972075e-02	-6.77626e-21	
820	3.977075e-02	-6.77626e-21	
821	3.982075e-02	-6.77626e-21	
822	3.987075e-02	-6.77626e-21	
823	3.992075e-02	-6.77626e-21	
824	3.997075e-02	-6.77626e-21	
825	4.002075e-02	-6.77626e-21	
826	4.007075e-02	-6.77626e-21	
827	4.012075e-02	-6.77626e-21	
828	4.017075e-02	-6.77626e-21	
829	4.022075e-02	-6.77626e-21	
830	4.027075e-02	-6.77626e-21	
831	4.032075e-02	-6.77626e-21	
832	4.037075e-02	-6.77626e-21	
833	4.042075e-02	-6.77626e-21	
834	4.047075e-02	-6.77626e-21	
835	4.052075e-02	-6.77626e-21	
836	4.057075e-02	-6.77626e-21	
837	4.062075e-02	-6.77626e-21	
838	4.067075e-02	-6.77626e-21	
839	4.072075e-02	-6.77626e-21	
840	4.077075e-02	-6.77626e-21	
841	4.082075e-02	-6.77626e-21	
842	4.087075e-02	-6.77626e-21	
843	4.092075e-02	-6.77626e-21	
844	4.097075e-02	-6.77626e-21	
845	4.102075e-02	-6.77626e-21	
846	4.107075e-02	-6.77626e-21	
847	4.112075e-02	-6.77626e-21	
848	4.117075e-02	-6.77626e-21	
849	4.122075e-02	-6.77626e-21	
850	4.127075e-02	-6.77626e-21	
851	4.132075e-02	-6.77626e-21	
852	4.137075e-02	-6.77626e-21	
853	4.142075e-02	-6.77626e-21	
854	4.147075e-02	-6.77626e-21	
855	4.152075e-02	-6.77626e-21	
856	4.157075e-02	-6.77626e-21	
857	4.162075e-02	-6.77626e-21	
858	4.167075e-02	-6.77626e-21	
859	4.172075e-02	-6.77626e-21	
860	4.177075e-02	-6.77626e-21	
861	4.182075e-02	-6.77626e-21	
862	4.187075e-02	-6.77626e-21	
863	4.192075e-02	-6.77626e-21	
864	4.197075e-02	-6.77626e-21	
865	4.202075e-02	-6.77626e-21	
866	4.207075e-02	-6.77626e-21	

Index   time            i(vin)          
--------------------------------------------------------------------------------
867	4.212075e-02	-6.77626e-21	
868	4.217075e-02	-6.77626e-21	
869	4.222075e-02	-6.77626e-21	
870	4.227075e-02	-6.77626e-21	
871	4.232075e-02	-6.77626e-21	
872	4.237075e-02	-6.77626e-21	
873	4.242075e-02	-6.77626e-21	
874	4.247075e-02	-6.77626e-21	
875	4.252075e-02	-6.77626e-21	
876	4.257075e-02	-6.77626e-21	
877	4.262075e-02	-6.77626e-21	
878	4.267075e-02	-6.77626e-21	
879	4.272075e-02	-6.77626e-21	
880	4.277075e-02	-6.77626e-21	
881	4.282075e-02	-6.77626e-21	
882	4.287075e-02	-6.77626e-21	
883	4.292075e-02	-6.77626e-21	
884	4.297075e-02	-6.77626e-21	
885	4.302075e-02	-6.77626e-21	
886	4.307075e-02	-6.77626e-21	
887	4.312075e-02	-6.77626e-21	
888	4.317075e-02	-6.77626e-21	
889	4.322075e-02	-6.77626e-21	
890	4.327075e-02	-6.77626e-21	
891	4.332075e-02	-6.77626e-21	
892	4.337075e-02	-6.77626e-21	
893	4.342075e-02	-6.77626e-21	
894	4.347075e-02	-6.77626e-21	
895	4.352075e-02	-6.77626e-21	
896	4.357075e-02	-6.77626e-21	
897	4.362075e-02	-6.77626e-21	
898	4.367075e-02	-6.77626e-21	
899	4.372075e-02	-6.77626e-21	
900	4.377075e-02	-6.77626e-21	
901	4.382075e-02	-6.77626e-21	
902	4.387075e-02	-6.77626e-21	
903	4.392075e-02	-6.77626e-21	
904	4.397075e-02	-6.77626e-21	
905	4.402075e-02	-6.77626e-21	
906	4.407075e-02	-6.77626e-21	
907	4.412075e-02	-6.77626e-21	
908	4.417075e-02	-6.77626e-21	
909	4.422075e-02	-6.77626e-21	
910	4.427075e-02	-6.77626e-21	
911	4.432075e-02	-6.77626e-21	
912	4.437075e-02	-6.77626e-21	
913	4.442075e-02	-6.77626e-21	
914	4.447075e-02	-6.77626e-21	
915	4.452075e-02	-6.77626e-21	
916	4.457075e-02	-6.77626e-21	
917	4.462075e-02	-6.77626e-21	
918	4.467075e-02	-6.77626e-21	
919	4.472075e-02	-6.77626e-21	
920	4.477075e-02	-6.77626e-21	
921	4.482075e-02	-6.77626e-21	
922	4.487075e-02	-6.77626e-21	
923	4.492075e-02	-6.77626e-21	
924	4.497075e-02	-6.77626e-21	

Index   time            i(vin)          
--------------------------------------------------------------------------------
925	4.502075e-02	-6.77626e-21	
926	4.507075e-02	-6.77626e-21	
927	4.512075e-02	-6.77626e-21	
928	4.517075e-02	-6.77626e-21	
929	4.522075e-02	-6.77626e-21	
930	4.527075e-02	-6.77626e-21	
931	4.532075e-02	-6.77626e-21	
932	4.537075e-02	-6.77626e-21	
933	4.542075e-02	-6.77626e-21	
934	4.547075e-02	-6.77626e-21	
935	4.552075e-02	-6.77626e-21	
936	4.557075e-02	-6.77626e-21	
937	4.562075e-02	-6.77626e-21	
938	4.567075e-02	-6.77626e-21	
939	4.572075e-02	-6.77626e-21	
940	4.577075e-02	-6.77626e-21	
941	4.582075e-02	-6.77626e-21	
942	4.587075e-02	-6.77626e-21	
943	4.592075e-02	-6.77626e-21	
944	4.597075e-02	-6.77626e-21	
945	4.602075e-02	-6.77626e-21	
946	4.607075e-02	-6.77626e-21	
947	4.612075e-02	-6.77626e-21	
948	4.617075e-02	-6.77626e-21	
949	4.622075e-02	-6.77626e-21	
950	4.627075e-02	-6.77626e-21	
951	4.632075e-02	-6.77626e-21	
952	4.637075e-02	-6.77626e-21	
953	4.642075e-02	-6.77626e-21	
954	4.647075e-02	-6.77626e-21	
955	4.652075e-02	-6.77626e-21	
956	4.657075e-02	-6.77626e-21	
957	4.662075e-02	-6.77626e-21	
958	4.667075e-02	-6.77626e-21	
959	4.672075e-02	-6.77626e-21	
960	4.677075e-02	-6.77626e-21	
961	4.682075e-02	-6.77626e-21	
962	4.687075e-02	-6.77626e-21	
963	4.692075e-02	-6.77626e-21	
964	4.697075e-02	-6.77626e-21	
965	4.702075e-02	-6.77626e-21	
966	4.707075e-02	-6.77626e-21	
967	4.712075e-02	-6.77626e-21	
968	4.717075e-02	-6.77626e-21	
969	4.722075e-02	-6.77626e-21	
970	4.727075e-02	-6.77626e-21	
971	4.732075e-02	-6.77626e-21	
972	4.737075e-02	-6.77626e-21	
973	4.742075e-02	-6.77626e-21	
974	4.747075e-02	-6.77626e-21	
975	4.752075e-02	-6.77626e-21	
976	4.757075e-02	-6.77626e-21	
977	4.762075e-02	-6.77626e-21	
978	4.767075e-02	-6.77626e-21	
979	4.772075e-02	-6.77626e-21	
980	4.777075e-02	-6.77626e-21	
981	4.782075e-02	-6.77626e-21	
982	4.787075e-02	-6.77626e-21	

Index   time            i(vin)          
--------------------------------------------------------------------------------
983	4.792075e-02	-6.77626e-21	
984	4.797075e-02	-6.77626e-21	
985	4.802075e-02	-6.77626e-21	
986	4.807075e-02	-6.77626e-21	
987	4.812075e-02	-6.77626e-21	
988	4.817075e-02	-6.77626e-21	
989	4.822075e-02	-6.77626e-21	
990	4.827075e-02	-6.77626e-21	
991	4.832075e-02	-6.77626e-21	
992	4.837075e-02	-6.77626e-21	
993	4.842075e-02	-6.77626e-21	
994	4.847075e-02	-6.77626e-21	
995	4.852075e-02	-6.77626e-21	
996	4.857075e-02	-6.77626e-21	
997	4.862075e-02	-6.77626e-21	
998	4.867075e-02	-6.77626e-21	
999	4.872075e-02	-6.77626e-21	
1000	4.877075e-02	-6.77626e-21	
1001	4.882075e-02	-6.77626e-21	
1002	4.887075e-02	-6.77626e-21	
1003	4.892075e-02	-6.77626e-21	
1004	4.897075e-02	-6.77626e-21	
1005	4.902075e-02	-6.77626e-21	
1006	4.907075e-02	-6.77626e-21	
1007	4.912075e-02	-6.77626e-21	
1008	4.917075e-02	-6.77626e-21	
1009	4.922075e-02	-6.77626e-21	
1010	4.927075e-02	-6.77626e-21	
1011	4.932075e-02	-6.77626e-21	
1012	4.937075e-02	-6.77626e-21	
1013	4.942075e-02	-6.77626e-21	
1014	4.947075e-02	-6.77626e-21	
1015	4.952075e-02	-6.77626e-21	
1016	4.957075e-02	-6.77626e-21	
1017	4.962075e-02	-6.77626e-21	
1018	4.967075e-02	-6.77626e-21	
1019	4.972075e-02	-6.77626e-21	
1020	4.977075e-02	-6.77626e-21	
1021	4.982075e-02	-6.77626e-21	
1022	4.987075e-02	-6.77626e-21	
1023	4.992075e-02	-6.77626e-21	
1024	4.996037e-02	-5.42101e-20	
1025	5.000000e-02	-2.71051e-20	
Note: Simulation executed from .control section 
