
Note: No compatibility mode selected!


Circuit: * nmos dc transistor sweep

Doing analysis at TEMP = 27.000000 and TNOM = 27.000000

Using SPARSE 1.3 as Direct Linear Solver

No. of Data Rows : 501
                           * nmos dc transistor sweep
                           DC transfer characteristic  Sun Jun 14 01:19:36  2026
--------------------------------------------------------------------------------
Index   v-sweep         i(vds)          
--------------------------------------------------------------------------------
0	0.000000e+00	-1.01000e-12	
1	1.000000e-02	-1.01000e-12	
2	2.000000e-02	-1.01000e-12	
3	3.000000e-02	-1.01000e-12	
4	4.000000e-02	-1.01000e-12	
5	5.000000e-02	-1.01000e-12	
6	6.000000e-02	-1.01000e-12	
7	7.000000e-02	-1.01000e-12	
8	8.000000e-02	-1.01000e-12	
9	9.000000e-02	-1.01000e-12	
10	1.000000e-01	-1.01000e-12	
11	1.100000e-01	-1.01000e-12	
12	1.200000e-01	-1.01000e-12	
13	1.300000e-01	-1.01000e-12	
14	1.400000e-01	-1.01000e-12	
15	1.500000e-01	-1.01000e-12	
16	1.600000e-01	-1.01000e-12	
17	1.700000e-01	-1.01000e-12	
18	1.800000e-01	-1.01000e-12	
19	1.900000e-01	-1.01000e-12	
20	2.000000e-01	-1.01000e-12	
21	2.100000e-01	-1.01000e-12	
22	2.200000e-01	-1.01000e-12	
23	2.300000e-01	-1.01000e-12	
24	2.400000e-01	-1.01000e-12	
25	2.500000e-01	-1.01000e-12	
26	2.600000e-01	-1.01000e-12	
27	2.700000e-01	-1.01000e-12	
28	2.800000e-01	-1.01000e-12	
29	2.900000e-01	-1.01000e-12	
30	3.000000e-01	-1.01000e-12	
31	3.100000e-01	-1.01000e-12	
32	3.200000e-01	-1.01000e-12	
33	3.300000e-01	-1.01000e-12	
34	3.400000e-01	-1.01000e-12	
35	3.500000e-01	-1.01000e-12	
36	3.600000e-01	-1.01000e-12	
37	3.700000e-01	-1.01000e-12	
38	3.800000e-01	-1.01000e-12	
39	3.900000e-01	-1.01000e-12	
40	4.000000e-01	-1.01000e-12	
41	4.100000e-01	-1.01000e-12	
42	4.200000e-01	-1.01000e-12	
43	4.300000e-01	-1.01000e-12	
44	4.400000e-01	-1.01000e-12	
45	4.500000e-01	-1.01000e-12	
46	4.600000e-01	-1.01000e-12	
47	4.700000e-01	-1.01000e-12	
48	4.800000e-01	-1.01000e-12	
49	4.900000e-01	-1.01000e-12	
50	5.000000e-01	-1.01000e-12	
51	5.100000e-01	-1.01000e-12	
52	5.200000e-01	-1.01000e-12	
53	5.300000e-01	-1.01000e-12	
54	5.400000e-01	-1.01000e-12	

Index   v-sweep         i(vds)          
--------------------------------------------------------------------------------
55	5.500000e-01	-1.01000e-12	
56	5.600000e-01	-1.01000e-12	
57	5.700000e-01	-1.01000e-12	
58	5.800000e-01	-1.01000e-12	
59	5.900000e-01	-1.01000e-12	
60	6.000000e-01	-1.01000e-12	
61	6.100000e-01	-1.01000e-12	
62	6.200000e-01	-1.01000e-12	
63	6.300000e-01	-1.01000e-12	
64	6.400000e-01	-1.01000e-12	
65	6.500000e-01	-1.01000e-12	
66	6.600000e-01	-1.01000e-12	
67	6.700000e-01	-1.01000e-12	
68	6.800000e-01	-1.01000e-12	
69	6.900000e-01	-1.01000e-12	
70	7.000000e-01	-1.01000e-12	
71	7.100000e-01	-6.06010e-08	
72	7.200000e-01	-2.42401e-07	
73	7.300000e-01	-5.45401e-07	
74	7.400000e-01	-9.69601e-07	
75	7.500000e-01	-1.51500e-06	
76	7.600000e-01	-2.18160e-06	
77	7.700000e-01	-2.96940e-06	
78	7.800000e-01	-3.87840e-06	
79	7.900000e-01	-4.90860e-06	
80	8.000000e-01	-6.06000e-06	
81	8.100000e-01	-7.33260e-06	
82	8.200000e-01	-8.72640e-06	
83	8.300000e-01	-1.02414e-05	
84	8.400000e-01	-1.18776e-05	
85	8.500000e-01	-1.36350e-05	
86	8.600000e-01	-1.55136e-05	
87	8.700000e-01	-1.75134e-05	
88	8.800000e-01	-1.96344e-05	
89	8.900000e-01	-2.18766e-05	
90	9.000000e-01	-2.42400e-05	
91	9.100000e-01	-2.67246e-05	
92	9.200000e-01	-2.93304e-05	
93	9.300000e-01	-3.20574e-05	
94	9.400000e-01	-3.49056e-05	
95	9.500000e-01	-3.78750e-05	
96	9.600000e-01	-4.09656e-05	
97	9.700000e-01	-4.41774e-05	
98	9.800000e-01	-4.75104e-05	
99	9.900000e-01	-5.09646e-05	
100	1.000000e+00	-5.45400e-05	
101	1.010000e+00	-5.82366e-05	
102	1.020000e+00	-6.20544e-05	
103	1.030000e+00	-6.59934e-05	
104	1.040000e+00	-7.00536e-05	
105	1.050000e+00	-7.42350e-05	
106	1.060000e+00	-7.85376e-05	
107	1.070000e+00	-8.29614e-05	
108	1.080000e+00	-8.75064e-05	
109	1.090000e+00	-9.21726e-05	
110	1.100000e+00	-9.69600e-05	
111	1.110000e+00	-1.01869e-04	
112	1.120000e+00	-1.06898e-04	

Index   v-sweep         i(vds)          
--------------------------------------------------------------------------------
113	1.130000e+00	-1.12049e-04	
114	1.140000e+00	-1.17322e-04	
115	1.150000e+00	-1.22715e-04	
116	1.160000e+00	-1.28230e-04	
117	1.170000e+00	-1.33865e-04	
118	1.180000e+00	-1.39622e-04	
119	1.190000e+00	-1.45501e-04	
120	1.200000e+00	-1.51500e-04	
121	1.210000e+00	-1.57621e-04	
122	1.220000e+00	-1.63862e-04	
123	1.230000e+00	-1.70225e-04	
124	1.240000e+00	-1.76710e-04	
125	1.250000e+00	-1.83315e-04	
126	1.260000e+00	-1.90042e-04	
127	1.270000e+00	-1.96889e-04	
128	1.280000e+00	-2.03858e-04	
129	1.290000e+00	-2.10949e-04	
130	1.300000e+00	-2.18160e-04	
131	1.310000e+00	-2.25493e-04	
132	1.320000e+00	-2.32946e-04	
133	1.330000e+00	-2.40521e-04	
134	1.340000e+00	-2.48218e-04	
135	1.350000e+00	-2.56035e-04	
136	1.360000e+00	-2.63974e-04	
137	1.370000e+00	-2.72033e-04	
138	1.380000e+00	-2.80214e-04	
139	1.390000e+00	-2.88517e-04	
140	1.400000e+00	-2.96940e-04	
141	1.410000e+00	-3.05485e-04	
142	1.420000e+00	-3.14150e-04	
143	1.430000e+00	-3.22937e-04	
144	1.440000e+00	-3.31846e-04	
145	1.450000e+00	-3.40875e-04	
146	1.460000e+00	-3.50026e-04	
147	1.470000e+00	-3.59297e-04	
148	1.480000e+00	-3.68690e-04	
149	1.490000e+00	-3.78205e-04	
150	1.500000e+00	-3.87840e-04	
151	1.510000e+00	-3.97597e-04	
152	1.520000e+00	-4.07474e-04	
153	1.530000e+00	-4.17473e-04	
154	1.540000e+00	-4.27594e-04	
155	1.550000e+00	-4.37835e-04	
156	1.560000e+00	-4.48198e-04	
157	1.570000e+00	-4.58681e-04	
158	1.580000e+00	-4.69286e-04	
159	1.590000e+00	-4.80013e-04	
160	1.600000e+00	-4.90860e-04	
161	1.610000e+00	-5.01829e-04	
162	1.620000e+00	-5.12918e-04	
163	1.630000e+00	-5.24129e-04	
164	1.640000e+00	-5.35462e-04	
165	1.650000e+00	-5.46915e-04	
166	1.660000e+00	-5.58490e-04	
167	1.670000e+00	-5.70185e-04	
168	1.680000e+00	-5.82002e-04	
169	1.690000e+00	-5.93941e-04	
170	1.700000e+00	-6.06000e-04	

Index   v-sweep         i(vds)          
--------------------------------------------------------------------------------
171	1.710000e+00	-6.18120e-04	
172	1.720000e+00	-6.30240e-04	
173	1.730000e+00	-6.42360e-04	
174	1.740000e+00	-6.54480e-04	
175	1.750000e+00	-6.66600e-04	
176	1.760000e+00	-6.78720e-04	
177	1.770000e+00	-6.90840e-04	
178	1.780000e+00	-7.02960e-04	
179	1.790000e+00	-7.15080e-04	
180	1.800000e+00	-7.27200e-04	
181	1.810000e+00	-7.39320e-04	
182	1.820000e+00	-7.51440e-04	
183	1.830000e+00	-7.63560e-04	
184	1.840000e+00	-7.75680e-04	
185	1.850000e+00	-7.87800e-04	
186	1.860000e+00	-7.99920e-04	
187	1.870000e+00	-8.12040e-04	
188	1.880000e+00	-8.24160e-04	
189	1.890000e+00	-8.36280e-04	
190	1.900000e+00	-8.48400e-04	
191	1.910000e+00	-8.60520e-04	
192	1.920000e+00	-8.72640e-04	
193	1.930000e+00	-8.84760e-04	
194	1.940000e+00	-8.96880e-04	
195	1.950000e+00	-9.09000e-04	
196	1.960000e+00	-9.21120e-04	
197	1.970000e+00	-9.33240e-04	
198	1.980000e+00	-9.45360e-04	
199	1.990000e+00	-9.57480e-04	
200	2.000000e+00	-9.69600e-04	
201	2.010000e+00	-9.81720e-04	
202	2.020000e+00	-9.93840e-04	
203	2.030000e+00	-1.00596e-03	
204	2.040000e+00	-1.01808e-03	
205	2.050000e+00	-1.03020e-03	
206	2.060000e+00	-1.04232e-03	
207	2.070000e+00	-1.05444e-03	
208	2.080000e+00	-1.06656e-03	
209	2.090000e+00	-1.07868e-03	
210	2.100000e+00	-1.09080e-03	
211	2.110000e+00	-1.10292e-03	
212	2.120000e+00	-1.11504e-03	
213	2.130000e+00	-1.12716e-03	
214	2.140000e+00	-1.13928e-03	
215	2.150000e+00	-1.15140e-03	
216	2.160000e+00	-1.16352e-03	
217	2.170000e+00	-1.17564e-03	
218	2.180000e+00	-1.18776e-03	
219	2.190000e+00	-1.19988e-03	
220	2.200000e+00	-1.21200e-03	
221	2.210000e+00	-1.22412e-03	
222	2.220000e+00	-1.23624e-03	
223	2.230000e+00	-1.24836e-03	
224	2.240000e+00	-1.26048e-03	
225	2.250000e+00	-1.27260e-03	
226	2.260000e+00	-1.28472e-03	
227	2.270000e+00	-1.29684e-03	
228	2.280000e+00	-1.30896e-03	

Index   v-sweep         i(vds)          
--------------------------------------------------------------------------------
229	2.290000e+00	-1.32108e-03	
230	2.300000e+00	-1.33320e-03	
231	2.310000e+00	-1.34532e-03	
232	2.320000e+00	-1.35744e-03	
233	2.330000e+00	-1.36956e-03	
234	2.340000e+00	-1.38168e-03	
235	2.350000e+00	-1.39380e-03	
236	2.360000e+00	-1.40592e-03	
237	2.370000e+00	-1.41804e-03	
238	2.380000e+00	-1.43016e-03	
239	2.390000e+00	-1.44228e-03	
240	2.400000e+00	-1.45440e-03	
241	2.410000e+00	-1.46652e-03	
242	2.420000e+00	-1.47864e-03	
243	2.430000e+00	-1.49076e-03	
244	2.440000e+00	-1.50288e-03	
245	2.450000e+00	-1.51500e-03	
246	2.460000e+00	-1.52712e-03	
247	2.470000e+00	-1.53924e-03	
248	2.480000e+00	-1.55136e-03	
249	2.490000e+00	-1.56348e-03	
250	2.500000e+00	-1.57560e-03	
251	2.510000e+00	-1.58772e-03	
252	2.520000e+00	-1.59984e-03	
253	2.530000e+00	-1.61196e-03	
254	2.540000e+00	-1.62408e-03	
255	2.550000e+00	-1.63620e-03	
256	2.560000e+00	-1.64832e-03	
257	2.570000e+00	-1.66044e-03	
258	2.580000e+00	-1.67256e-03	
259	2.590000e+00	-1.68468e-03	
260	2.600000e+00	-1.69680e-03	
261	2.610000e+00	-1.70892e-03	
262	2.620000e+00	-1.72104e-03	
263	2.630000e+00	-1.73316e-03	
264	2.640000e+00	-1.74528e-03	
265	2.650000e+00	-1.75740e-03	
266	2.660000e+00	-1.76952e-03	
267	2.670000e+00	-1.78164e-03	
268	2.680000e+00	-1.79376e-03	
269	2.690000e+00	-1.80588e-03	
270	2.700000e+00	-1.81800e-03	
271	2.710000e+00	-1.83012e-03	
272	2.720000e+00	-1.84224e-03	
273	2.730000e+00	-1.85436e-03	
274	2.740000e+00	-1.86648e-03	
275	2.750000e+00	-1.87860e-03	
276	2.760000e+00	-1.89072e-03	
277	2.770000e+00	-1.90284e-03	
278	2.780000e+00	-1.91496e-03	
279	2.790000e+00	-1.92708e-03	
280	2.800000e+00	-1.93920e-03	
281	2.810000e+00	-1.95132e-03	
282	2.820000e+00	-1.96344e-03	
283	2.830000e+00	-1.97556e-03	
284	2.840000e+00	-1.98768e-03	
285	2.850000e+00	-1.99980e-03	
286	2.860000e+00	-2.01192e-03	

Index   v-sweep         i(vds)          
--------------------------------------------------------------------------------
287	2.870000e+00	-2.02404e-03	
288	2.880000e+00	-2.03616e-03	
289	2.890000e+00	-2.04828e-03	
290	2.900000e+00	-2.06040e-03	
291	2.910000e+00	-2.07252e-03	
292	2.920000e+00	-2.08464e-03	
293	2.930000e+00	-2.09676e-03	
294	2.940000e+00	-2.10888e-03	
295	2.950000e+00	-2.12100e-03	
296	2.960000e+00	-2.13312e-03	
297	2.970000e+00	-2.14524e-03	
298	2.980000e+00	-2.15736e-03	
299	2.990000e+00	-2.16948e-03	
300	3.000000e+00	-2.18160e-03	
301	3.010000e+00	-2.19372e-03	
302	3.020000e+00	-2.20584e-03	
303	3.030000e+00	-2.21796e-03	
304	3.040000e+00	-2.23008e-03	
305	3.050000e+00	-2.24220e-03	
306	3.060000e+00	-2.25432e-03	
307	3.070000e+00	-2.26644e-03	
308	3.080000e+00	-2.27856e-03	
309	3.090000e+00	-2.29068e-03	
310	3.100000e+00	-2.30280e-03	
311	3.110000e+00	-2.31492e-03	
312	3.120000e+00	-2.32704e-03	
313	3.130000e+00	-2.33916e-03	
314	3.140000e+00	-2.35128e-03	
315	3.150000e+00	-2.36340e-03	
316	3.160000e+00	-2.37552e-03	
317	3.170000e+00	-2.38764e-03	
318	3.180000e+00	-2.39976e-03	
319	3.190000e+00	-2.41188e-03	
320	3.200000e+00	-2.42400e-03	
321	3.210000e+00	-2.43612e-03	
322	3.220000e+00	-2.44824e-03	
323	3.230000e+00	-2.46036e-03	
324	3.240000e+00	-2.47248e-03	
325	3.250000e+00	-2.48460e-03	
326	3.260000e+00	-2.49672e-03	
327	3.270000e+00	-2.50884e-03	
328	3.280000e+00	-2.52096e-03	
329	3.290000e+00	-2.53308e-03	
330	3.300000e+00	-2.54520e-03	
331	3.310000e+00	-2.55732e-03	
332	3.320000e+00	-2.56944e-03	
333	3.330000e+00	-2.58156e-03	
334	3.340000e+00	-2.59368e-03	
335	3.350000e+00	-2.60580e-03	
336	3.360000e+00	-2.61792e-03	
337	3.370000e+00	-2.63004e-03	
338	3.380000e+00	-2.64216e-03	
339	3.390000e+00	-2.65428e-03	
340	3.400000e+00	-2.66640e-03	
341	3.410000e+00	-2.67852e-03	
342	3.420000e+00	-2.69064e-03	
343	3.430000e+00	-2.70276e-03	
344	3.440000e+00	-2.71488e-03	

Index   v-sweep         i(vds)          
--------------------------------------------------------------------------------
345	3.450000e+00	-2.72700e-03	
346	3.460000e+00	-2.73912e-03	
347	3.470000e+00	-2.75124e-03	
348	3.480000e+00	-2.76336e-03	
349	3.490000e+00	-2.77548e-03	
350	3.500000e+00	-2.78760e-03	
351	3.510000e+00	-2.79972e-03	
352	3.520000e+00	-2.81184e-03	
353	3.530000e+00	-2.82396e-03	
354	3.540000e+00	-2.83608e-03	
355	3.550000e+00	-2.84820e-03	
356	3.560000e+00	-2.86032e-03	
357	3.570000e+00	-2.87244e-03	
358	3.580000e+00	-2.88456e-03	
359	3.590000e+00	-2.89668e-03	
360	3.600000e+00	-2.90880e-03	
361	3.610000e+00	-2.92092e-03	
362	3.620000e+00	-2.93304e-03	
363	3.630000e+00	-2.94516e-03	
364	3.640000e+00	-2.95728e-03	
365	3.650000e+00	-2.96940e-03	
366	3.660000e+00	-2.98152e-03	
367	3.670000e+00	-2.99364e-03	
368	3.680000e+00	-3.00576e-03	
369	3.690000e+00	-3.01788e-03	
370	3.700000e+00	-3.03000e-03	
371	3.710000e+00	-3.04212e-03	
372	3.720000e+00	-3.05424e-03	
373	3.730000e+00	-3.06636e-03	
374	3.740000e+00	-3.07848e-03	
375	3.750000e+00	-3.09060e-03	
376	3.760000e+00	-3.10272e-03	
377	3.770000e+00	-3.11484e-03	
378	3.780000e+00	-3.12696e-03	
379	3.790000e+00	-3.13908e-03	
380	3.800000e+00	-3.15120e-03	
381	3.810000e+00	-3.16332e-03	
382	3.820000e+00	-3.17544e-03	
383	3.830000e+00	-3.18756e-03	
384	3.840000e+00	-3.19968e-03	
385	3.850000e+00	-3.21180e-03	
386	3.860000e+00	-3.22392e-03	
387	3.870000e+00	-3.23604e-03	
388	3.880000e+00	-3.24816e-03	
389	3.890000e+00	-3.26028e-03	
390	3.900000e+00	-3.27240e-03	
391	3.910000e+00	-3.28452e-03	
392	3.920000e+00	-3.29664e-03	
393	3.930000e+00	-3.30876e-03	
394	3.940000e+00	-3.32088e-03	
395	3.950000e+00	-3.33300e-03	
396	3.960000e+00	-3.34512e-03	
397	3.970000e+00	-3.35724e-03	
398	3.980000e+00	-3.36936e-03	
399	3.990000e+00	-3.38148e-03	
400	4.000000e+00	-3.39360e-03	
401	4.010000e+00	-3.40572e-03	
402	4.020000e+00	-3.41784e-03	

Index   v-sweep         i(vds)          
--------------------------------------------------------------------------------
403	4.030000e+00	-3.42996e-03	
404	4.040000e+00	-3.44208e-03	
405	4.050000e+00	-3.45420e-03	
406	4.060000e+00	-3.46632e-03	
407	4.070000e+00	-3.47844e-03	
408	4.080000e+00	-3.49056e-03	
409	4.090000e+00	-3.50268e-03	
410	4.100000e+00	-3.51480e-03	
411	4.110000e+00	-3.52692e-03	
412	4.120000e+00	-3.53904e-03	
413	4.130000e+00	-3.55116e-03	
414	4.140000e+00	-3.56328e-03	
415	4.150000e+00	-3.57540e-03	
416	4.160000e+00	-3.58752e-03	
417	4.170000e+00	-3.59964e-03	
418	4.180000e+00	-3.61176e-03	
419	4.190000e+00	-3.62388e-03	
420	4.200000e+00	-3.63600e-03	
421	4.210000e+00	-3.64812e-03	
422	4.220000e+00	-3.66024e-03	
423	4.230000e+00	-3.67236e-03	
424	4.240000e+00	-3.68448e-03	
425	4.250000e+00	-3.69660e-03	
426	4.260000e+00	-3.70872e-03	
427	4.270000e+00	-3.72084e-03	
428	4.280000e+00	-3.73296e-03	
429	4.290000e+00	-3.74508e-03	
430	4.300000e+00	-3.75720e-03	
431	4.310000e+00	-3.76932e-03	
432	4.320000e+00	-3.78144e-03	
433	4.330000e+00	-3.79356e-03	
434	4.340000e+00	-3.80568e-03	
435	4.350000e+00	-3.81780e-03	
436	4.360000e+00	-3.82992e-03	
437	4.370000e+00	-3.84204e-03	
438	4.380000e+00	-3.85416e-03	
439	4.390000e+00	-3.86628e-03	
440	4.400000e+00	-3.87840e-03	
441	4.410000e+00	-3.89052e-03	
442	4.420000e+00	-3.90264e-03	
443	4.430000e+00	-3.91476e-03	
444	4.440000e+00	-3.92688e-03	
445	4.450000e+00	-3.93900e-03	
446	4.460000e+00	-3.95112e-03	
447	4.470000e+00	-3.96324e-03	
448	4.480000e+00	-3.97536e-03	
449	4.490000e+00	-3.98748e-03	
450	4.500000e+00	-3.99960e-03	
451	4.510000e+00	-4.01172e-03	
452	4.520000e+00	-4.02384e-03	
453	4.530000e+00	-4.03596e-03	
454	4.540000e+00	-4.04808e-03	
455	4.550000e+00	-4.06020e-03	
456	4.560000e+00	-4.07232e-03	
457	4.570000e+00	-4.08444e-03	
458	4.580000e+00	-4.09656e-03	
459	4.590000e+00	-4.10868e-03	
460	4.600000e+00	-4.12080e-03	

Index   v-sweep         i(vds)          
--------------------------------------------------------------------------------
461	4.610000e+00	-4.13292e-03	
462	4.620000e+00	-4.14504e-03	
463	4.630000e+00	-4.15716e-03	
464	4.640000e+00	-4.16928e-03	
465	4.650000e+00	-4.18140e-03	
466	4.660000e+00	-4.19352e-03	
467	4.670000e+00	-4.20564e-03	
468	4.680000e+00	-4.21776e-03	
469	4.690000e+00	-4.22988e-03	
470	4.700000e+00	-4.24200e-03	
471	4.710000e+00	-4.25412e-03	
472	4.720000e+00	-4.26624e-03	
473	4.730000e+00	-4.27836e-03	
474	4.740000e+00	-4.29048e-03	
475	4.750000e+00	-4.30260e-03	
476	4.760000e+00	-4.31472e-03	
477	4.770000e+00	-4.32684e-03	
478	4.780000e+00	-4.33896e-03	
479	4.790000e+00	-4.35108e-03	
480	4.800000e+00	-4.36320e-03	
481	4.810000e+00	-4.37532e-03	
482	4.820000e+00	-4.38744e-03	
483	4.830000e+00	-4.39956e-03	
484	4.840000e+00	-4.41168e-03	
485	4.850000e+00	-4.42380e-03	
486	4.860000e+00	-4.43592e-03	
487	4.870000e+00	-4.44804e-03	
488	4.880000e+00	-4.46016e-03	
489	4.890000e+00	-4.47228e-03	
490	4.900000e+00	-4.48440e-03	
491	4.910000e+00	-4.49652e-03	
492	4.920000e+00	-4.50864e-03	
493	4.930000e+00	-4.52076e-03	
494	4.940000e+00	-4.53288e-03	
495	4.950000e+00	-4.54500e-03	
496	4.960000e+00	-4.55712e-03	
497	4.970000e+00	-4.56924e-03	
498	4.980000e+00	-4.58136e-03	
499	4.990000e+00	-4.59348e-03	
500	5.000000e+00	-4.60560e-03	
Note: Simulation executed from .control section 
